
*** ChampSim Multicore Out-of-Order Simulator ***

Warmup Instructions: 25000000
Simulation Instructions: 25000000
Number of CPUs: 1
Off-chip DRAM Size: 4 GiB Channels: 1 Width: 64-bit Data Rate: 3200 MT/s

VirtualMemory physical capacity: 8588881920 num_ppages: 2096895
VirtualMemory page size: 4096 log2_page_size: 12

CPU 0 runs /home/priyansh/Downloads/Tracefiles/602.gcc_s-1850B.champsimtrace.xz
CPU 0 Bimodal branch predictor
Basic BTB sets: 1024 ways: 8 indirect buffer size: 4096 RAS size: 64
cpu0_L2C Stream-based prefetcher
Heartbeat CPU 0 instructions: 10000000 cycles: 2500075 heartbeat IPC: 3.99988 cumulative IPC: 3.99988 (Simulation time: 0 hr 0 min 13 sec) 
Heartbeat CPU 0 instructions: 20000000 cycles: 5000075 heartbeat IPC: 4 cumulative IPC: 3.99994 (Simulation time: 0 hr 0 min 26 sec) 

Warmup complete CPU 0 instructions: 25000004 cycles: 6250076 (Simulation time: 0 hr 0 min 32 sec) 

Heartbeat CPU 0 instructions: 30000000 cycles: 14303010 heartbeat IPC: 1.07493 cumulative IPC: 0.620891 (Simulation time: 0 hr 0 min 40 sec) 
Heartbeat CPU 0 instructions: 40000002 cycles: 30237950 heartbeat IPC: 0.627552 cumulative IPC: 0.625316 (Simulation time: 0 hr 0 min 55 sec) 
Heartbeat CPU 0 instructions: 50000003 cycles: 46045581 heartbeat IPC: 0.632606 cumulative IPC: 0.628212 (Simulation time: 0 hr 1 min 10 sec) 
Finished CPU 0 instructions: 25000004 cycles: 39795506 cumulative IPC: 0.628212 (Simulation time: 0 hr 1 min 10 sec) 

ChampSim completed all CPUs

Region of Interest Statistics

CPU 0 cumulative IPC: 0.628212 instructions: 25000004 cycles: 39795506
cpu0_DTLB TOTAL     ACCESS:    4749322  HIT:    4741196  MISS:       8126
cpu0_DTLB LOAD      ACCESS:    3939732  HIT:    3931609  MISS:       8123
cpu0_DTLB RFO       ACCESS:     809590  HIT:     809587  MISS:          3
cpu0_DTLB PREFETCH  ACCESS:          0  HIT:          0  MISS:          0
cpu0_DTLB WRITEBACK ACCESS:          0  HIT:          0  MISS:          0
cpu0_DTLB TRANSLATION ACCESS:          0  HIT:          0  MISS:          0
cpu0_DTLB PREFETCH  REQUESTED:          0  ISSUED:          0  USEFUL:          0  USELESS:          0
cpu0_DTLB AVERAGE MISS LATENCY: 208.076 cycles
cpu0_ITLB TOTAL     ACCESS:    2857034  HIT:    2857034  MISS:          0
cpu0_ITLB LOAD      ACCESS:    2857034  HIT:    2857034  MISS:          0
cpu0_ITLB RFO       ACCESS:          0  HIT:          0  MISS:          0
cpu0_ITLB PREFETCH  ACCESS:          0  HIT:          0  MISS:          0
cpu0_ITLB WRITEBACK ACCESS:          0  HIT:          0  MISS:          0
cpu0_ITLB TRANSLATION ACCESS:          0  HIT:          0  MISS:          0
cpu0_ITLB PREFETCH  REQUESTED:          0  ISSUED:          0  USEFUL:          0  USELESS:          0
cpu0_ITLB AVERAGE MISS LATENCY: -nan cycles
cpu0_STLB TOTAL     ACCESS:       8126  HIT:        392  MISS:       7734
cpu0_STLB LOAD      ACCESS:       8123  HIT:        392  MISS:       7731
cpu0_STLB RFO       ACCESS:          3  HIT:          0  MISS:          3
cpu0_STLB PREFETCH  ACCESS:          0  HIT:          0  MISS:          0
cpu0_STLB WRITEBACK ACCESS:          0  HIT:          0  MISS:          0
cpu0_STLB TRANSLATION ACCESS:          0  HIT:          0  MISS:          0
cpu0_STLB PREFETCH  REQUESTED:          0  ISSUED:          0  USEFUL:          0  USELESS:          0
cpu0_STLB AVERAGE MISS LATENCY: 209.166 cycles
cpu0_L1D TOTAL     ACCESS:    5550987  HIT:    4948289  MISS:     602698
cpu0_L1D LOAD      ACCESS:    3385631  HIT:    2783850  MISS:     601781
cpu0_L1D RFO       ACCESS:    2157622  HIT:    2157450  MISS:        172
cpu0_L1D PREFETCH  ACCESS:          0  HIT:          0  MISS:          0
cpu0_L1D WRITEBACK ACCESS:          0  HIT:          0  MISS:          0
cpu0_L1D TRANSLATION ACCESS:       7734  HIT:       6989  MISS:        745
cpu0_L1D PREFETCH  REQUESTED:          0  ISSUED:          0  USEFUL:          0  USELESS:          0
cpu0_L1D AVERAGE MISS LATENCY: 22.2422 cycles
cpu0_L2C TOTAL     ACCESS:    1035770  HIT:     574184  MISS:     461586
cpu0_L2C LOAD      ACCESS:     601781  HIT:     545500  MISS:      56281
cpu0_L2C RFO       ACCESS:        172  HIT:          0  MISS:        172
cpu0_L2C PREFETCH  ACCESS:     431488  HIT:      26490  MISS:     404998
cpu0_L2C WRITEBACK ACCESS:       1584  HIT:       1584  MISS:          0
cpu0_L2C TRANSLATION ACCESS:        745  HIT:        610  MISS:        135
cpu0_L2C PREFETCH  REQUESTED:     454092  ISSUED:     454092  USEFUL:     411176  USELESS:      16384
cpu0_L2C AVERAGE MISS LATENCY: 100.612 cycles
LLC TOTAL     ACCESS:     462207  HIT:       1414  MISS:     460793
LLC LOAD      ACCESS:      33716  HIT:        492  MISS:      33224
LLC RFO       ACCESS:        172  HIT:          0  MISS:        172
LLC PREFETCH  ACCESS:     427563  HIT:        237  MISS:     427326
LLC WRITEBACK ACCESS:        621  HIT:        621  MISS:          0
LLC TRANSLATION ACCESS:        135  HIT:         64  MISS:         71
LLC PREFETCH  REQUESTED:          0  ISSUED:          0  USEFUL:          0  USELESS:          0
LLC AVERAGE MISS LATENCY: 85.0231 cycles

DRAM Statistics
 CHANNEL 0
 RQ ROW_BUFFER_HIT:     376550  ROW_BUFFER_MISS:      84243
 DBUS AVG_CONGESTED_CYCLE:    3.99627
 WQ ROW_BUFFER_HIT:        331  ROW_BUFFER_MISS:        292  FULL:          0


CPU 0 Branch Prediction Accuracy: 92.3646% MPKI: 19.576 Average ROB Occupancy at Mispredict: 33.4547
Branch type MPKI
BRANCH_DIRECT_JUMP: 0
BRANCH_INDIRECT: 0
BRANCH_CONDITIONAL: 19.576
BRANCH_DIRECT_CALL: 0
BRANCH_INDIRECT_CALL: 0
BRANCH_RETURN: 0

