
*** ChampSim Multicore Out-of-Order Simulator ***

Warmup Instructions: 25000000
Simulation Instructions: 25000000
Number of CPUs: 1
Off-chip DRAM Size: 4 GiB Channels: 1 Width: 64-bit Data Rate: 3200 MT/s

VirtualMemory physical capacity: 8588881920 num_ppages: 2096895
VirtualMemory page size: 4096 log2_page_size: 12

CPU 0 runs /home/priyansh/Downloads/CS683/Tracefiles/602.gcc_s-1850B.champsimtrace.xz
CPU 0 Bimodal branch predictor
Basic BTB sets: 1024 ways: 8 indirect buffer size: 4096 RAS size: 64
cpu0_L2C Stream throttling prefetcher
Heartbeat CPU 0 instructions: 10000000 cycles: 2500075 heartbeat IPC: 3.99988 cumulative IPC: 3.99988 (Simulation time: 0 hr 0 min 13 sec) 
Heartbeat CPU 0 instructions: 20000000 cycles: 5000075 heartbeat IPC: 4 cumulative IPC: 3.99994 (Simulation time: 0 hr 0 min 26 sec) 

Warmup complete CPU 0 instructions: 25000004 cycles: 6250076 (Simulation time: 0 hr 0 min 33 sec) 

Heartbeat CPU 0 instructions: 30000000 cycles: 14314645 heartbeat IPC: 1.07359 cumulative IPC: 0.619995 (Simulation time: 0 hr 0 min 40 sec) 
Heartbeat CPU 0 instructions: 40000002 cycles: 30249450 heartbeat IPC: 0.627557 cumulative IPC: 0.625016 (Simulation time: 0 hr 0 min 55 sec) 
Heartbeat CPU 0 instructions: 50000003 cycles: 46068233 heartbeat IPC: 0.63216 cumulative IPC: 0.627854 (Simulation time: 0 hr 1 min 10 sec) 
Finished CPU 0 instructions: 25000004 cycles: 39818158 cumulative IPC: 0.627854 (Simulation time: 0 hr 1 min 10 sec) 

ChampSim completed all CPUs

Region of Interest Statistics

CPU 0 cumulative IPC: 0.627854 instructions: 25000004 cycles: 39818158
cpu0_DTLB TOTAL     ACCESS:    4749330  HIT:    4741204  MISS:       8126
cpu0_DTLB LOAD      ACCESS:    3939740  HIT:    3931617  MISS:       8123
cpu0_DTLB RFO       ACCESS:     809590  HIT:     809587  MISS:          3
cpu0_DTLB PREFETCH  ACCESS:          0  HIT:          0  MISS:          0
cpu0_DTLB WRITEBACK ACCESS:          0  HIT:          0  MISS:          0
cpu0_DTLB TRANSLATION ACCESS:          0  HIT:          0  MISS:          0
cpu0_DTLB PREFETCH  REQUESTED:          0  ISSUED:          0  USEFUL:          0  USELESS:          0
cpu0_DTLB AVERAGE MISS LATENCY: 208.067 cycles
cpu0_ITLB TOTAL     ACCESS:    2857034  HIT:    2857034  MISS:          0
cpu0_ITLB LOAD      ACCESS:    2857034  HIT:    2857034  MISS:          0
cpu0_ITLB RFO       ACCESS:          0  HIT:          0  MISS:          0
cpu0_ITLB PREFETCH  ACCESS:          0  HIT:          0  MISS:          0
cpu0_ITLB WRITEBACK ACCESS:          0  HIT:          0  MISS:          0
cpu0_ITLB TRANSLATION ACCESS:          0  HIT:          0  MISS:          0
cpu0_ITLB PREFETCH  REQUESTED:          0  ISSUED:          0  USEFUL:          0  USELESS:          0
cpu0_ITLB AVERAGE MISS LATENCY: -nan cycles
cpu0_STLB TOTAL     ACCESS:       8126  HIT:        392  MISS:       7734
cpu0_STLB LOAD      ACCESS:       8123  HIT:        392  MISS:       7731
cpu0_STLB RFO       ACCESS:          3  HIT:          0  MISS:          3
cpu0_STLB PREFETCH  ACCESS:          0  HIT:          0  MISS:          0
cpu0_STLB WRITEBACK ACCESS:          0  HIT:          0  MISS:          0
cpu0_STLB TRANSLATION ACCESS:          0  HIT:          0  MISS:          0
cpu0_STLB PREFETCH  REQUESTED:          0  ISSUED:          0  USEFUL:          0  USELESS:          0
cpu0_STLB AVERAGE MISS LATENCY: 209.157 cycles
cpu0_L1D TOTAL     ACCESS:    5551092  HIT:    4948394  MISS:     602698
cpu0_L1D LOAD      ACCESS:    3385736  HIT:    2783955  MISS:     601781
cpu0_L1D RFO       ACCESS:    2157622  HIT:    2157450  MISS:        172
cpu0_L1D PREFETCH  ACCESS:          0  HIT:          0  MISS:          0
cpu0_L1D WRITEBACK ACCESS:          0  HIT:          0  MISS:          0
cpu0_L1D TRANSLATION ACCESS:       7734  HIT:       6989  MISS:        745
cpu0_L1D PREFETCH  REQUESTED:          0  ISSUED:          0  USEFUL:          0  USELESS:          0
cpu0_L1D AVERAGE MISS LATENCY: 22.2738 cycles
cpu0_L2C TOTAL     ACCESS:    1115357  HIT:     641356  MISS:     474001
cpu0_L2C LOAD      ACCESS:     601781  HIT:     552318  MISS:      49463
cpu0_L2C RFO       ACCESS:        172  HIT:          0  MISS:        172
cpu0_L2C PREFETCH  ACCESS:     511075  HIT:      86842  MISS:     424233
cpu0_L2C WRITEBACK ACCESS:       1584  HIT:       1584  MISS:          0
cpu0_L2C TRANSLATION ACCESS:        745  HIT:        612  MISS:        133
cpu0_L2C PREFETCH  REQUESTED:     571637  ISSUED:     571495  USEFUL:     412457  USELESS:      25687
cpu0_L2C AVERAGE MISS LATENCY: 105.176 cycles
LLC TOTAL     ACCESS:     474622  HIT:       1900  MISS:     472722
LLC LOAD      ACCESS:      35548  HIT:        476  MISS:      35072
LLC RFO       ACCESS:        172  HIT:          0  MISS:        172
LLC PREFETCH  ACCESS:     438148  HIT:        740  MISS:     437408
LLC WRITEBACK ACCESS:        621  HIT:        621  MISS:          0
LLC TRANSLATION ACCESS:        133  HIT:         63  MISS:         70
LLC PREFETCH  REQUESTED:          0  ISSUED:          0  USEFUL:          0  USELESS:          0
LLC AVERAGE MISS LATENCY: 87.5287 cycles

DRAM Statistics
 CHANNEL 0
 RQ ROW_BUFFER_HIT:     387193  ROW_BUFFER_MISS:      85529
 DBUS AVG_CONGESTED_CYCLE:     3.9956
 WQ ROW_BUFFER_HIT:        253  ROW_BUFFER_MISS:        367  FULL:          0


CPU 0 Branch Prediction Accuracy: 92.3646% MPKI: 19.576 Average ROB Occupancy at Mispredict: 33.4545
Branch type MPKI
BRANCH_DIRECT_JUMP: 0
BRANCH_INDIRECT: 0
BRANCH_CONDITIONAL: 19.576
BRANCH_DIRECT_CALL: 0
BRANCH_INDIRECT_CALL: 0
BRANCH_RETURN: 0

