
*** ChampSim Multicore Out-of-Order Simulator ***

Warmup Instructions: 25000000
Simulation Instructions: 25000000
Number of CPUs: 1
Off-chip DRAM Size: 4 GiB Channels: 1 Width: 64-bit Data Rate: 3200 MT/s

VirtualMemory physical capacity: 8588881920 num_ppages: 2096895
VirtualMemory page size: 4096 log2_page_size: 12

CPU 0 runs /home/priyansh/Downloads/CS683/Tracefiles/602.gcc_s-1850B.champsimtrace.xz
CPU 0 Bimodal branch predictor
Basic BTB sets: 1024 ways: 8 indirect buffer size: 4096 RAS size: 64
cpu0_L2C Stream plus stride based prefetcher
Heartbeat CPU 0 instructions: 10000000 cycles: 2500075 heartbeat IPC: 3.99988 cumulative IPC: 3.99988 (Simulation time: 0 hr 0 min 17 sec) 
Heartbeat CPU 0 instructions: 20000000 cycles: 5000075 heartbeat IPC: 4 cumulative IPC: 3.99994 (Simulation time: 0 hr 0 min 35 sec) 

Warmup complete CPU 0 instructions: 25000004 cycles: 6250076 (Simulation time: 0 hr 0 min 43 sec) 

Heartbeat CPU 0 instructions: 30000000 cycles: 14478616 heartbeat IPC: 1.05501 cumulative IPC: 0.607641 (Simulation time: 0 hr 0 min 54 sec) 
Heartbeat CPU 0 instructions: 40000002 cycles: 30724894 heartbeat IPC: 0.615526 cumulative IPC: 0.612875 (Simulation time: 0 hr 1 min 14 sec) 
Heartbeat CPU 0 instructions: 50000003 cycles: 46835562 heartbeat IPC: 0.620707 cumulative IPC: 0.615984 (Simulation time: 0 hr 1 min 35 sec) 
Finished CPU 0 instructions: 25000004 cycles: 40585487 cumulative IPC: 0.615984 (Simulation time: 0 hr 1 min 35 sec) 

ChampSim completed all CPUs

Region of Interest Statistics

CPU 0 cumulative IPC: 0.615984 instructions: 25000004 cycles: 40585487
cpu0_DTLB TOTAL     ACCESS:    4749310  HIT:    4741184  MISS:       8126
cpu0_DTLB LOAD      ACCESS:    3939720  HIT:    3931597  MISS:       8123
cpu0_DTLB RFO       ACCESS:     809590  HIT:     809587  MISS:          3
cpu0_DTLB PREFETCH  ACCESS:          0  HIT:          0  MISS:          0
cpu0_DTLB WRITEBACK ACCESS:          0  HIT:          0  MISS:          0
cpu0_DTLB TRANSLATION ACCESS:          0  HIT:          0  MISS:          0
cpu0_DTLB PREFETCH  REQUESTED:          0  ISSUED:          0  USEFUL:          0  USELESS:          0
cpu0_DTLB AVERAGE MISS LATENCY: 208.093 cycles
cpu0_ITLB TOTAL     ACCESS:    2857034  HIT:    2857034  MISS:          0
cpu0_ITLB LOAD      ACCESS:    2857034  HIT:    2857034  MISS:          0
cpu0_ITLB RFO       ACCESS:          0  HIT:          0  MISS:          0
cpu0_ITLB PREFETCH  ACCESS:          0  HIT:          0  MISS:          0
cpu0_ITLB WRITEBACK ACCESS:          0  HIT:          0  MISS:          0
cpu0_ITLB TRANSLATION ACCESS:          0  HIT:          0  MISS:          0
cpu0_ITLB PREFETCH  REQUESTED:          0  ISSUED:          0  USEFUL:          0  USELESS:          0
cpu0_ITLB AVERAGE MISS LATENCY: -nan cycles
cpu0_STLB TOTAL     ACCESS:       8126  HIT:        392  MISS:       7734
cpu0_STLB LOAD      ACCESS:       8123  HIT:        392  MISS:       7731
cpu0_STLB RFO       ACCESS:          3  HIT:          0  MISS:          3
cpu0_STLB PREFETCH  ACCESS:          0  HIT:          0  MISS:          0
cpu0_STLB WRITEBACK ACCESS:          0  HIT:          0  MISS:          0
cpu0_STLB TRANSLATION ACCESS:          0  HIT:          0  MISS:          0
cpu0_STLB PREFETCH  REQUESTED:          0  ISSUED:          0  USEFUL:          0  USELESS:          0
cpu0_STLB AVERAGE MISS LATENCY: 209.184 cycles
cpu0_L1D TOTAL     ACCESS:    5551133  HIT:    4948437  MISS:     602696
cpu0_L1D LOAD      ACCESS:    3385777  HIT:    2783998  MISS:     601779
cpu0_L1D RFO       ACCESS:    2157622  HIT:    2157450  MISS:        172
cpu0_L1D PREFETCH  ACCESS:          0  HIT:          0  MISS:          0
cpu0_L1D WRITEBACK ACCESS:          0  HIT:          0  MISS:          0
cpu0_L1D TRANSLATION ACCESS:       7734  HIT:       6989  MISS:        745
cpu0_L1D PREFETCH  REQUESTED:          0  ISSUED:          0  USEFUL:          0  USELESS:          0
cpu0_L1D AVERAGE MISS LATENCY: 23.5397 cycles
cpu0_L2C TOTAL     ACCESS:    1049289  HIT:     560866  MISS:     488423
cpu0_L2C LOAD      ACCESS:     601779  HIT:     558333  MISS:      43446
cpu0_L2C RFO       ACCESS:        172  HIT:          2  MISS:        170
cpu0_L2C PREFETCH  ACCESS:     445029  HIT:        357  MISS:     444672
cpu0_L2C WRITEBACK ACCESS:       1564  HIT:       1564  MISS:          0
cpu0_L2C TRANSLATION ACCESS:        745  HIT:        610  MISS:        135
cpu0_L2C PREFETCH  REQUESTED:     447211  ISSUED:     447211  USEFUL:     403563  USELESS:      43255
cpu0_L2C AVERAGE MISS LATENCY: 108.994 cycles
LLC TOTAL     ACCESS:     489041  HIT:       1384  MISS:     487657
LLC LOAD      ACCESS:      41291  HIT:        631  MISS:      40660
LLC RFO       ACCESS:        170  HIT:          0  MISS:        170
LLC PREFETCH  ACCESS:     446827  HIT:         71  MISS:     446756
LLC WRITEBACK ACCESS:        618  HIT:        618  MISS:          0
LLC TRANSLATION ACCESS:        135  HIT:         64  MISS:         71
LLC PREFETCH  REQUESTED:          0  ISSUED:          0  USEFUL:          0  USELESS:          0
LLC AVERAGE MISS LATENCY: 88.6248 cycles

DRAM Statistics
 CHANNEL 0
 RQ ROW_BUFFER_HIT:     400181  ROW_BUFFER_MISS:      87476
 DBUS AVG_CONGESTED_CYCLE:    3.99675
 WQ ROW_BUFFER_HIT:        185  ROW_BUFFER_MISS:        430  FULL:          0


CPU 0 Branch Prediction Accuracy: 92.3646% MPKI: 19.576 Average ROB Occupancy at Mispredict: 33.4549
Branch type MPKI
BRANCH_DIRECT_JUMP: 0
BRANCH_INDIRECT: 0
BRANCH_CONDITIONAL: 19.576
BRANCH_DIRECT_CALL: 0
BRANCH_INDIRECT_CALL: 0
BRANCH_RETURN: 0

