
*** ChampSim Multicore Out-of-Order Simulator ***

Warmup Instructions: 25000000
Simulation Instructions: 25000000
Number of CPUs: 1
Off-chip DRAM Size: 4 GiB Channels: 1 Width: 64-bit Data Rate: 3200 MT/s

VirtualMemory physical capacity: 8588881920 num_ppages: 2096895
VirtualMemory page size: 4096 log2_page_size: 12

CPU 0 runs /home/priyansh/Downloads/CS683/Tracefiles/603.bwaves_s-1740B.champsimtrace.xz
CPU 0 Bimodal branch predictor
Basic BTB sets: 1024 ways: 8 indirect buffer size: 4096 RAS size: 64
cpu0_L2C Stream plus stride based prefetcher
Heartbeat CPU 0 instructions: 10000004 cycles: 3642290 heartbeat IPC: 2.74553 cumulative IPC: 2.74553 (Simulation time: 0 hr 0 min 22 sec) 
Heartbeat CPU 0 instructions: 20000001 cycles: 7284434 heartbeat IPC: 2.74563 cumulative IPC: 2.74558 (Simulation time: 0 hr 0 min 44 sec) 

Warmup complete CPU 0 instructions: 25000001 cycles: 9105488 (Simulation time: 0 hr 0 min 54 sec) 

Heartbeat CPU 0 instructions: 30000003 cycles: 19090905 heartbeat IPC: 0.846993 cumulative IPC: 0.50073 (Simulation time: 0 hr 1 min 24 sec) 
Heartbeat CPU 0 instructions: 40000001 cycles: 39058486 heartbeat IPC: 0.500812 cumulative IPC: 0.500785 (Simulation time: 0 hr 2 min 25 sec) 
Heartbeat CPU 0 instructions: 50000002 cycles: 59019738 heartbeat IPC: 0.500971 cumulative IPC: 0.500859 (Simulation time: 0 hr 3 min 26 sec) 
Finished CPU 0 instructions: 25000001 cycles: 49914250 cumulative IPC: 0.500859 (Simulation time: 0 hr 3 min 26 sec) 

ChampSim completed all CPUs

Region of Interest Statistics

CPU 0 cumulative IPC: 0.500859 instructions: 25000001 cycles: 49914250
cpu0_DTLB TOTAL     ACCESS:    7990602  HIT:    7961727  MISS:      28875
cpu0_DTLB LOAD      ACCESS:    7430792  HIT:    7406669  MISS:      24123
cpu0_DTLB RFO       ACCESS:     559810  HIT:     555058  MISS:       4752
cpu0_DTLB PREFETCH  ACCESS:          0  HIT:          0  MISS:          0
cpu0_DTLB WRITEBACK ACCESS:          0  HIT:          0  MISS:          0
cpu0_DTLB TRANSLATION ACCESS:          0  HIT:          0  MISS:          0
cpu0_DTLB PREFETCH  REQUESTED:          0  ISSUED:          0  USEFUL:          0  USELESS:          0
cpu0_DTLB AVERAGE MISS LATENCY: 74.2701 cycles
cpu0_ITLB TOTAL     ACCESS:    2224359  HIT:    2224359  MISS:          0
cpu0_ITLB LOAD      ACCESS:    2224359  HIT:    2224359  MISS:          0
cpu0_ITLB RFO       ACCESS:          0  HIT:          0  MISS:          0
cpu0_ITLB PREFETCH  ACCESS:          0  HIT:          0  MISS:          0
cpu0_ITLB WRITEBACK ACCESS:          0  HIT:          0  MISS:          0
cpu0_ITLB TRANSLATION ACCESS:          0  HIT:          0  MISS:          0
cpu0_ITLB PREFETCH  REQUESTED:          0  ISSUED:          0  USEFUL:          0  USELESS:          0
cpu0_ITLB AVERAGE MISS LATENCY: -nan cycles
cpu0_STLB TOTAL     ACCESS:      28875  HIT:      21451  MISS:       7424
cpu0_STLB LOAD      ACCESS:      24123  HIT:      16889  MISS:       7234
cpu0_STLB RFO       ACCESS:       4752  HIT:       4562  MISS:        190
cpu0_STLB PREFETCH  ACCESS:          0  HIT:          0  MISS:          0
cpu0_STLB WRITEBACK ACCESS:          0  HIT:          0  MISS:          0
cpu0_STLB TRANSLATION ACCESS:          0  HIT:          0  MISS:          0
cpu0_STLB PREFETCH  REQUESTED:          0  ISSUED:          0  USEFUL:          0  USELESS:          0
cpu0_STLB AVERAGE MISS LATENCY: 253.051 cycles
cpu0_L1D TOTAL     ACCESS:    8216247  HIT:    7715997  MISS:     500250
cpu0_L1D LOAD      ACCESS:    6840170  HIT:    6352536  MISS:     487634
cpu0_L1D RFO       ACCESS:    1368653  HIT:    1356472  MISS:      12181
cpu0_L1D PREFETCH  ACCESS:          0  HIT:          0  MISS:          0
cpu0_L1D WRITEBACK ACCESS:          0  HIT:          0  MISS:          0
cpu0_L1D TRANSLATION ACCESS:       7424  HIT:       6989  MISS:        435
cpu0_L1D PREFETCH  REQUESTED:          0  ISSUED:          0  USEFUL:          0  USELESS:          0
cpu0_L1D AVERAGE MISS LATENCY: 399.63 cycles
cpu0_L2C TOTAL     ACCESS:     723321  HIT:     233582  MISS:     489739
cpu0_L2C LOAD      ACCESS:     487634  HIT:     220247  MISS:     267387
cpu0_L2C RFO       ACCESS:      12181  HIT:          0  MISS:      12181
cpu0_L2C PREFETCH  ACCESS:     210703  HIT:        551  MISS:     210152
cpu0_L2C WRITEBACK ACCESS:      12368  HIT:      12368  MISS:          0
cpu0_L2C TRANSLATION ACCESS:        435  HIT:        416  MISS:         19
cpu0_L2C PREFETCH  REQUESTED:     341724  ISSUED:     341724  USEFUL:     202908  USELESS:      14477
cpu0_L2C AVERAGE MISS LATENCY: 1034.19 cycles
LLC TOTAL     ACCESS:     623186  HIT:     126628  MISS:     496558
LLC LOAD      ACCESS:     260196  HIT:     114261  MISS:     145935
LLC RFO       ACCESS:      12181  HIT:          0  MISS:      12181
LLC PREFETCH  ACCESS:     338577  HIT:        152  MISS:     338425
LLC WRITEBACK ACCESS:      12213  HIT:      12211  MISS:          2
LLC TRANSLATION ACCESS:         19  HIT:          4  MISS:         15
LLC PREFETCH  REQUESTED:          0  ISSUED:          0  USEFUL:          0  USELESS:          0
LLC AVERAGE MISS LATENCY: 1618.81 cycles

DRAM Statistics
 CHANNEL 0
 RQ ROW_BUFFER_HIT:       4717  ROW_BUFFER_MISS:     491839
 DBUS AVG_CONGESTED_CYCLE:    3.99536
 WQ ROW_BUFFER_HIT:       3701  ROW_BUFFER_MISS:       8705  FULL:          0


CPU 0 Branch Prediction Accuracy: 62.4635% MPKI: 9.3696 Average ROB Occupancy at Mispredict: 290.736
Branch type MPKI
BRANCH_DIRECT_JUMP: 0
BRANCH_INDIRECT: 0
BRANCH_CONDITIONAL: 9.3696
BRANCH_DIRECT_CALL: 0
BRANCH_INDIRECT_CALL: 0
BRANCH_RETURN: 0

