
*** ChampSim Multicore Out-of-Order Simulator ***

Warmup Instructions: 25000000
Simulation Instructions: 25000000
Number of CPUs: 1
Off-chip DRAM Size: 4 GiB Channels: 1 Width: 64-bit Data Rate: 3200 MT/s

VirtualMemory physical capacity: 8588881920 num_ppages: 2096895
VirtualMemory page size: 4096 log2_page_size: 12

CPU 0 runs /home/priyansh/Downloads/CS683/Tracefiles/619.lbm_s-2677B.champsimtrace.xz
CPU 0 Bimodal branch predictor
Basic BTB sets: 1024 ways: 8 indirect buffer size: 4096 RAS size: 64
cpu0_L2C Stream-based prefetcher
Heartbeat CPU 0 instructions: 10000004 cycles: 2593753 heartbeat IPC: 3.85542 cumulative IPC: 3.85542 (Simulation time: 0 hr 0 min 16 sec) 
Heartbeat CPU 0 instructions: 20000001 cycles: 5182557 heartbeat IPC: 3.86279 cumulative IPC: 3.8591 (Simulation time: 0 hr 0 min 32 sec) 

Warmup complete CPU 0 instructions: 25000004 cycles: 6477290 (Simulation time: 0 hr 0 min 40 sec) 

Heartbeat CPU 0 instructions: 30000004 cycles: 28719379 heartbeat IPC: 0.424866 cumulative IPC: 0.224799 (Simulation time: 0 hr 1 min 36 sec) 
Heartbeat CPU 0 instructions: 40000004 cycles: 73230702 heartbeat IPC: 0.224662 cumulative IPC: 0.224708 (Simulation time: 0 hr 3 min 28 sec) 
Heartbeat CPU 0 instructions: 50000001 cycles: 118791715 heartbeat IPC: 0.219486 cumulative IPC: 0.222589 (Simulation time: 0 hr 5 min 23 sec) 
Finished CPU 0 instructions: 25000002 cycles: 112314426 cumulative IPC: 0.222589 (Simulation time: 0 hr 5 min 23 sec) 

ChampSim completed all CPUs

Region of Interest Statistics

CPU 0 cumulative IPC: 0.222589 instructions: 25000002 cycles: 112314426
cpu0_DTLB TOTAL     ACCESS:    4469421  HIT:    4435374  MISS:      34047
cpu0_DTLB LOAD      ACCESS:    1977064  HIT:    1972443  MISS:       4621
cpu0_DTLB RFO       ACCESS:    2492357  HIT:    2462931  MISS:      29426
cpu0_DTLB PREFETCH  ACCESS:          0  HIT:          0  MISS:          0
cpu0_DTLB WRITEBACK ACCESS:          0  HIT:          0  MISS:          0
cpu0_DTLB TRANSLATION ACCESS:          0  HIT:          0  MISS:          0
cpu0_DTLB PREFETCH  REQUESTED:          0  ISSUED:          0  USEFUL:          0  USELESS:          0
cpu0_DTLB AVERAGE MISS LATENCY: 556.743 cycles
cpu0_ITLB TOTAL     ACCESS:     473392  HIT:     473392  MISS:          0
cpu0_ITLB LOAD      ACCESS:     473392  HIT:     473392  MISS:          0
cpu0_ITLB RFO       ACCESS:          0  HIT:          0  MISS:          0
cpu0_ITLB PREFETCH  ACCESS:          0  HIT:          0  MISS:          0
cpu0_ITLB WRITEBACK ACCESS:          0  HIT:          0  MISS:          0
cpu0_ITLB TRANSLATION ACCESS:          0  HIT:          0  MISS:          0
cpu0_ITLB PREFETCH  REQUESTED:          0  ISSUED:          0  USEFUL:          0  USELESS:          0
cpu0_ITLB AVERAGE MISS LATENCY: -nan cycles
cpu0_L1I TOTAL     ACCESS:     539919  HIT:     539919  MISS:          0
cpu0_L1I LOAD      ACCESS:     539919  HIT:     539919  MISS:          0
cpu0_L1I RFO       ACCESS:          0  HIT:          0  MISS:          0
cpu0_L1I PREFETCH  ACCESS:          0  HIT:          0  MISS:          0
cpu0_L1I WRITEBACK ACCESS:          0  HIT:          0  MISS:          0
cpu0_L1I TRANSLATION ACCESS:          0  HIT:          0  MISS:          0
cpu0_L1I PREFETCH  REQUESTED:          0  ISSUED:          0  USEFUL:          0  USELESS:          0
cpu0_L1I AVERAGE MISS LATENCY: -nan cycles
cpu0_STLB TOTAL     ACCESS:      34047  HIT:      15571  MISS:      18476
cpu0_STLB LOAD      ACCESS:       4621  HIT:          0  MISS:       4621
cpu0_STLB RFO       ACCESS:      29426  HIT:      15571  MISS:      13855
cpu0_STLB PREFETCH  ACCESS:          0  HIT:          0  MISS:          0
cpu0_STLB WRITEBACK ACCESS:          0  HIT:          0  MISS:          0
cpu0_STLB TRANSLATION ACCESS:          0  HIT:          0  MISS:          0
cpu0_STLB PREFETCH  REQUESTED:          0  ISSUED:          0  USEFUL:          0  USELESS:          0
cpu0_STLB AVERAGE MISS LATENCY: 1009.23 cycles
cpu0_L1D TOTAL     ACCESS:    5746139  HIT:    3795565  MISS:    1950574
cpu0_L1D LOAD      ACCESS:    1353764  HIT:    1058206  MISS:     295558
cpu0_L1D RFO       ACCESS:    4374817  HIT:    2719810  MISS:    1655007
cpu0_L1D PREFETCH  ACCESS:          0  HIT:          0  MISS:          0
cpu0_L1D WRITEBACK ACCESS:          0  HIT:          0  MISS:          0
cpu0_L1D TRANSLATION ACCESS:      17558  HIT:      17549  MISS:          9
cpu0_L1D PREFETCH  REQUESTED:          0  ISSUED:          0  USEFUL:          0  USELESS:          0
cpu0_L1D AVERAGE MISS LATENCY: 859.907 cycles
cpu0_L2C TOTAL     ACCESS:    3759701  HIT:    2538019  MISS:    1221682
cpu0_L2C LOAD      ACCESS:     295556  HIT:     102594  MISS:     192962
cpu0_L2C RFO       ACCESS:    1655006  HIT:     739587  MISS:     915419
cpu0_L2C PREFETCH  ACCESS:     154089  HIT:      40855  MISS:     113234
cpu0_L2C WRITEBACK ACCESS:    1655041  HIT:    1654983  MISS:         58
cpu0_L2C TRANSLATION ACCESS:          9  HIT:          0  MISS:          9
cpu0_L2C PREFETCH  REQUESTED:     501280  ISSUED:     472323  USEFUL:     168184  USELESS:      10624
cpu0_L2C AVERAGE MISS LATENCY: 1428.26 cycles
LLC TOTAL     ACCESS:    2201234  HIT:    1003595  MISS:    1197639
LLC LOAD      ACCESS:     127392  HIT:      45859  MISS:      81533
LLC RFO       ACCESS:     915337  HIT:      28771  MISS:     886566
LLC PREFETCH  ACCESS:     242908  HIT:      13421  MISS:     229487
LLC WRITEBACK ACCESS:     915588  HIT:     915544  MISS:         44
LLC TRANSLATION ACCESS:          9  HIT:          0  MISS:          9
LLC PREFETCH  REQUESTED:          0  ISSUED:          0  USEFUL:          0  USELESS:          0
LLC AVERAGE MISS LATENCY: 1598.74 cycles

DRAM Statistics
 CHANNEL 0
 RQ ROW_BUFFER_HIT:      39647  ROW_BUFFER_MISS:    1157948
 DBUS AVG_CONGESTED_CYCLE:    4.00406
 WQ ROW_BUFFER_HIT:      16270  ROW_BUFFER_MISS:     870521  FULL:          0


CPU 0 Branch Prediction Accuracy: 95.9842% MPKI: 0.71772 Average ROB Occupancy at Mispredict: 262.171
Branch type MPKI
BRANCH_DIRECT_JUMP: 0
BRANCH_INDIRECT: 0
BRANCH_CONDITIONAL: 0.71772
BRANCH_DIRECT_CALL: 0
BRANCH_INDIRECT_CALL: 0
BRANCH_RETURN: 0

