
*** ChampSim Multicore Out-of-Order Simulator ***

Warmup Instructions: 25000000
Simulation Instructions: 25000000
Number of CPUs: 1
Off-chip DRAM Size: 4 GiB Channels: 1 Width: 64-bit Data Rate: 3200 MT/s

VirtualMemory physical capacity: 8588881920 num_ppages: 2096895
VirtualMemory page size: 4096 log2_page_size: 12

CPU 0 runs /home/priyansh/Downloads/CS683/Tracefiles/619.lbm_s-2677B.champsimtrace.xz
CPU 0 Bimodal branch predictor
Basic BTB sets: 1024 ways: 8 indirect buffer size: 4096 RAS size: 64
cpu0_L2C Stream plus stride based prefetcher
Heartbeat CPU 0 instructions: 10000001 cycles: 2592692 heartbeat IPC: 3.857 cumulative IPC: 3.857 (Simulation time: 0 hr 0 min 21 sec) 
Heartbeat CPU 0 instructions: 20000001 cycles: 5181141 heartbeat IPC: 3.86332 cumulative IPC: 3.86015 (Simulation time: 0 hr 0 min 42 sec) 

Warmup complete CPU 0 instructions: 25000001 cycles: 6475412 (Simulation time: 0 hr 0 min 53 sec) 

Heartbeat CPU 0 instructions: 30000002 cycles: 29862876 heartbeat IPC: 0.405158 cumulative IPC: 0.21379 (Simulation time: 0 hr 2 min 10 sec) 
Heartbeat CPU 0 instructions: 40000004 cycles: 76535231 heartbeat IPC: 0.21426 cumulative IPC: 0.214103 (Simulation time: 0 hr 4 min 46 sec) 
Heartbeat CPU 0 instructions: 50000001 cycles: 124284011 heartbeat IPC: 0.209429 cumulative IPC: 0.212209 (Simulation time: 0 hr 7 min 24 sec) 
Finished CPU 0 instructions: 25000000 cycles: 117808599 cumulative IPC: 0.212209 (Simulation time: 0 hr 7 min 24 sec) 

ChampSim completed all CPUs

Region of Interest Statistics

CPU 0 cumulative IPC: 0.212209 instructions: 25000000 cycles: 117808599
cpu0_DTLB TOTAL     ACCESS:    4452910  HIT:    4418863  MISS:      34047
cpu0_DTLB LOAD      ACCESS:    1982090  HIT:    1977469  MISS:       4621
cpu0_DTLB RFO       ACCESS:    2470820  HIT:    2441394  MISS:      29426
cpu0_DTLB PREFETCH  ACCESS:          0  HIT:          0  MISS:          0
cpu0_DTLB WRITEBACK ACCESS:          0  HIT:          0  MISS:          0
cpu0_DTLB TRANSLATION ACCESS:          0  HIT:          0  MISS:          0
cpu0_DTLB PREFETCH  REQUESTED:          0  ISSUED:          0  USEFUL:          0  USELESS:          0
cpu0_DTLB AVERAGE MISS LATENCY: 515.66 cycles
cpu0_ITLB TOTAL     ACCESS:     472002  HIT:     472002  MISS:          0
cpu0_ITLB LOAD      ACCESS:     472002  HIT:     472002  MISS:          0
cpu0_ITLB RFO       ACCESS:          0  HIT:          0  MISS:          0
cpu0_ITLB PREFETCH  ACCESS:          0  HIT:          0  MISS:          0
cpu0_ITLB WRITEBACK ACCESS:          0  HIT:          0  MISS:          0
cpu0_ITLB TRANSLATION ACCESS:          0  HIT:          0  MISS:          0
cpu0_ITLB PREFETCH  REQUESTED:          0  ISSUED:          0  USEFUL:          0  USELESS:          0
cpu0_ITLB AVERAGE MISS LATENCY: -nan cycles
cpu0_L1I TOTAL     ACCESS:     552340  HIT:     552340  MISS:          0
cpu0_L1I LOAD      ACCESS:     552340  HIT:     552340  MISS:          0
cpu0_L1I RFO       ACCESS:          0  HIT:          0  MISS:          0
cpu0_L1I PREFETCH  ACCESS:          0  HIT:          0  MISS:          0
cpu0_L1I WRITEBACK ACCESS:          0  HIT:          0  MISS:          0
cpu0_L1I TRANSLATION ACCESS:          0  HIT:          0  MISS:          0
cpu0_L1I PREFETCH  REQUESTED:          0  ISSUED:          0  USEFUL:          0  USELESS:          0
cpu0_L1I AVERAGE MISS LATENCY: -nan cycles
cpu0_STLB TOTAL     ACCESS:      34047  HIT:      15571  MISS:      18476
cpu0_STLB LOAD      ACCESS:       4621  HIT:          0  MISS:       4621
cpu0_STLB RFO       ACCESS:      29426  HIT:      15571  MISS:      13855
cpu0_STLB PREFETCH  ACCESS:          0  HIT:          0  MISS:          0
cpu0_STLB WRITEBACK ACCESS:          0  HIT:          0  MISS:          0
cpu0_STLB TRANSLATION ACCESS:          0  HIT:          0  MISS:          0
cpu0_STLB PREFETCH  REQUESTED:          0  ISSUED:          0  USEFUL:          0  USELESS:          0
cpu0_STLB AVERAGE MISS LATENCY: 933.517 cycles
cpu0_L1D TOTAL     ACCESS:    5911312  HIT:    3960738  MISS:    1950574
cpu0_L1D LOAD      ACCESS:    1404487  HIT:    1108935  MISS:     295552
cpu0_L1D RFO       ACCESS:    4489303  HIT:    2834290  MISS:    1655013
cpu0_L1D PREFETCH  ACCESS:          0  HIT:          0  MISS:          0
cpu0_L1D WRITEBACK ACCESS:          0  HIT:          0  MISS:          0
cpu0_L1D TRANSLATION ACCESS:      17522  HIT:      17513  MISS:          9
cpu0_L1D PREFETCH  REQUESTED:          0  ISSUED:          0  USEFUL:          0  USELESS:          0
cpu0_L1D AVERAGE MISS LATENCY: 759.749 cycles
cpu0_L2C TOTAL     ACCESS:    3610728  HIT:    2400473  MISS:    1210255
cpu0_L2C LOAD      ACCESS:     295552  HIT:       3533  MISS:     292019
cpu0_L2C RFO       ACCESS:    1655012  HIT:     740890  MISS:     914122
cpu0_L2C PREFETCH  ACCESS:       5116  HIT:       1066  MISS:       4050
cpu0_L2C WRITEBACK ACCESS:    1655039  HIT:    1654984  MISS:         55
cpu0_L2C TRANSLATION ACCESS:          9  HIT:          0  MISS:          9
cpu0_L2C PREFETCH  REQUESTED:      13532  ISSUED:      13295  USEFUL:       4757  USELESS:        500
cpu0_L2C AVERAGE MISS LATENCY: 1210.41 cycles
LLC TOTAL     ACCESS:    2128487  HIT:     945411  MISS:    1183076
LLC LOAD      ACCESS:     290815  HIT:       3313  MISS:     287502
LLC RFO       ACCESS:     914062  HIT:      27481  MISS:     886581
LLC PREFETCH  ACCESS:       9307  HIT:        365  MISS:       8942
LLC WRITEBACK ACCESS:     914294  HIT:     914252  MISS:         42
LLC TRANSLATION ACCESS:          9  HIT:          0  MISS:          9
LLC PREFETCH  REQUESTED:          0  ISSUED:          0  USEFUL:          0  USELESS:          0
LLC AVERAGE MISS LATENCY: 1223.49 cycles

DRAM Statistics
 CHANNEL 0
 RQ ROW_BUFFER_HIT:      37524  ROW_BUFFER_MISS:    1145510
 DBUS AVG_CONGESTED_CYCLE:    4.00288
 WQ ROW_BUFFER_HIT:      17827  ROW_BUFFER_MISS:     868938  FULL:          0


CPU 0 Branch Prediction Accuracy: 95.9842% MPKI: 0.71772 Average ROB Occupancy at Mispredict: 259.391
Branch type MPKI
BRANCH_DIRECT_JUMP: 0
BRANCH_INDIRECT: 0
BRANCH_CONDITIONAL: 0.71772
BRANCH_DIRECT_CALL: 0
BRANCH_INDIRECT_CALL: 0
BRANCH_RETURN: 0

