
*** ChampSim Multicore Out-of-Order Simulator ***

Warmup Instructions: 25000000
Simulation Instructions: 25000000
Number of CPUs: 1
Off-chip DRAM Size: 4 GiB Channels: 1 Width: 64-bit Data Rate: 3200 MT/s

VirtualMemory physical capacity: 8588881920 num_ppages: 2096895
VirtualMemory page size: 4096 log2_page_size: 12

CPU 0 runs /home/priyansh/Downloads/CS683/Tracefiles/619.lbm_s-2677B.champsimtrace.xz
CPU 0 Bimodal branch predictor
Basic BTB sets: 1024 ways: 8 indirect buffer size: 4096 RAS size: 64
cpu0_L2C Stream plus stride based prefetcher
Heartbeat CPU 0 instructions: 10000001 cycles: 2592600 heartbeat IPC: 3.85713 cumulative IPC: 3.85713 (Simulation time: 0 hr 0 min 16 sec) 
Heartbeat CPU 0 instructions: 20000001 cycles: 5180802 heartbeat IPC: 3.86369 cumulative IPC: 3.86041 (Simulation time: 0 hr 0 min 31 sec) 

Warmup complete CPU 0 instructions: 25000001 cycles: 6475050 (Simulation time: 0 hr 0 min 39 sec) 

Heartbeat CPU 0 instructions: 30000002 cycles: 29829832 heartbeat IPC: 0.405696 cumulative IPC: 0.214089 (Simulation time: 0 hr 1 min 35 sec) 
Heartbeat CPU 0 instructions: 40000004 cycles: 76500161 heartbeat IPC: 0.214269 cumulative IPC: 0.214209 (Simulation time: 0 hr 3 min 26 sec) 
Heartbeat CPU 0 instructions: 50000001 cycles: 124194204 heartbeat IPC: 0.20967 cumulative IPC: 0.21237 (Simulation time: 0 hr 5 min 21 sec) 
Finished CPU 0 instructions: 25000000 cycles: 117719154 cumulative IPC: 0.21237 (Simulation time: 0 hr 5 min 21 sec) 

ChampSim completed all CPUs

Region of Interest Statistics

CPU 0 cumulative IPC: 0.21237 instructions: 25000000 cycles: 117719154
cpu0_DTLB TOTAL     ACCESS:    4452006  HIT:    4417959  MISS:      34047
cpu0_DTLB LOAD      ACCESS:    1981189  HIT:    1976568  MISS:       4621
cpu0_DTLB RFO       ACCESS:    2470817  HIT:    2441391  MISS:      29426
cpu0_DTLB PREFETCH  ACCESS:          0  HIT:          0  MISS:          0
cpu0_DTLB WRITEBACK ACCESS:          0  HIT:          0  MISS:          0
cpu0_DTLB TRANSLATION ACCESS:          0  HIT:          0  MISS:          0
cpu0_DTLB PREFETCH  REQUESTED:          0  ISSUED:          0  USEFUL:          0  USELESS:          0
cpu0_DTLB AVERAGE MISS LATENCY: 505.758 cycles
cpu0_ITLB TOTAL     ACCESS:     472091  HIT:     472091  MISS:          0
cpu0_ITLB LOAD      ACCESS:     472091  HIT:     472091  MISS:          0
cpu0_ITLB RFO       ACCESS:          0  HIT:          0  MISS:          0
cpu0_ITLB PREFETCH  ACCESS:          0  HIT:          0  MISS:          0
cpu0_ITLB WRITEBACK ACCESS:          0  HIT:          0  MISS:          0
cpu0_ITLB TRANSLATION ACCESS:          0  HIT:          0  MISS:          0
cpu0_ITLB PREFETCH  REQUESTED:          0  ISSUED:          0  USEFUL:          0  USELESS:          0
cpu0_ITLB AVERAGE MISS LATENCY: -nan cycles
cpu0_L1I TOTAL     ACCESS:     552115  HIT:     552115  MISS:          0
cpu0_L1I LOAD      ACCESS:     552115  HIT:     552115  MISS:          0
cpu0_L1I RFO       ACCESS:          0  HIT:          0  MISS:          0
cpu0_L1I PREFETCH  ACCESS:          0  HIT:          0  MISS:          0
cpu0_L1I WRITEBACK ACCESS:          0  HIT:          0  MISS:          0
cpu0_L1I TRANSLATION ACCESS:          0  HIT:          0  MISS:          0
cpu0_L1I PREFETCH  REQUESTED:          0  ISSUED:          0  USEFUL:          0  USELESS:          0
cpu0_L1I AVERAGE MISS LATENCY: -nan cycles
cpu0_STLB TOTAL     ACCESS:      34047  HIT:      15571  MISS:      18476
cpu0_STLB LOAD      ACCESS:       4621  HIT:          0  MISS:       4621
cpu0_STLB RFO       ACCESS:      29426  HIT:      15571  MISS:      13855
cpu0_STLB PREFETCH  ACCESS:          0  HIT:          0  MISS:          0
cpu0_STLB WRITEBACK ACCESS:          0  HIT:          0  MISS:          0
cpu0_STLB TRANSLATION ACCESS:          0  HIT:          0  MISS:          0
cpu0_STLB PREFETCH  REQUESTED:          0  ISSUED:          0  USEFUL:          0  USELESS:          0
cpu0_STLB AVERAGE MISS LATENCY: 915.269 cycles
cpu0_L1D TOTAL     ACCESS:    5911459  HIT:    3960886  MISS:    1950573
cpu0_L1D LOAD      ACCESS:    1404486  HIT:    1108937  MISS:     295549
cpu0_L1D RFO       ACCESS:    4489447  HIT:    2834432  MISS:    1655015
cpu0_L1D PREFETCH  ACCESS:          0  HIT:          0  MISS:          0
cpu0_L1D WRITEBACK ACCESS:          0  HIT:          0  MISS:          0
cpu0_L1D TRANSLATION ACCESS:      17526  HIT:      17517  MISS:          9
cpu0_L1D PREFETCH  REQUESTED:          0  ISSUED:          0  USEFUL:          0  USELESS:          0
cpu0_L1D AVERAGE MISS LATENCY: 759.337 cycles
cpu0_L2C TOTAL     ACCESS:    3610821  HIT:    2400282  MISS:    1210539
cpu0_L2C LOAD      ACCESS:     295549  HIT:       3598  MISS:     291951
cpu0_L2C RFO       ACCESS:    1655015  HIT:     740559  MISS:     914456
cpu0_L2C PREFETCH  ACCESS:       5207  HIT:       1141  MISS:       4066
cpu0_L2C WRITEBACK ACCESS:    1655041  HIT:    1654984  MISS:         57
cpu0_L2C TRANSLATION ACCESS:          9  HIT:          0  MISS:          9
cpu0_L2C PREFETCH  REQUESTED:      13641  ISSUED:      13419  USEFUL:       5001  USELESS:        467
cpu0_L2C AVERAGE MISS LATENCY: 1209.36 cycles
LLC TOTAL     ACCESS:    2128674  HIT:     945754  MISS:    1182920
LLC LOAD      ACCESS:     290546  HIT:       3121  MISS:     287425
LLC RFO       ACCESS:     914407  HIT:      27826  MISS:     886581
LLC PREFETCH  ACCESS:       9168  HIT:        306  MISS:       8862
LLC WRITEBACK ACCESS:     914544  HIT:     914501  MISS:         43
LLC TRANSLATION ACCESS:          9  HIT:          0  MISS:          9
LLC PREFETCH  REQUESTED:          0  ISSUED:          0  USEFUL:          0  USELESS:          0
LLC AVERAGE MISS LATENCY: 1222.18 cycles

DRAM Statistics
 CHANNEL 0
 RQ ROW_BUFFER_HIT:      37215  ROW_BUFFER_MISS:    1145662
 DBUS AVG_CONGESTED_CYCLE:    4.00293
 WQ ROW_BUFFER_HIT:      17816  ROW_BUFFER_MISS:     868895  FULL:          0


CPU 0 Branch Prediction Accuracy: 95.9842% MPKI: 0.71772 Average ROB Occupancy at Mispredict: 259.635
Branch type MPKI
BRANCH_DIRECT_JUMP: 0
BRANCH_INDIRECT: 0
BRANCH_CONDITIONAL: 0.71772
BRANCH_DIRECT_CALL: 0
BRANCH_INDIRECT_CALL: 0
BRANCH_RETURN: 0

