
*** ChampSim Multicore Out-of-Order Simulator ***

Warmup Instructions: 25000000
Simulation Instructions: 25000000
Number of CPUs: 1
Off-chip DRAM Size: 4 GiB Channels: 1 Width: 64-bit Data Rate: 3200 MT/s

VirtualMemory physical capacity: 8588881920 num_ppages: 2096895
VirtualMemory page size: 4096 log2_page_size: 12

CPU 0 runs /home/priyansh/Downloads/CS683/Tracefiles/619.lbm_s-2677B.champsimtrace.xz
CPU 0 Bimodal branch predictor
Basic BTB sets: 1024 ways: 8 indirect buffer size: 4096 RAS size: 64
cpu0_L2C Stream plus stride based prefetcher
Heartbeat CPU 0 instructions: 10000001 cycles: 2592603 heartbeat IPC: 3.85713 cumulative IPC: 3.85713 (Simulation time: 0 hr 0 min 16 sec) 
Heartbeat CPU 0 instructions: 20000001 cycles: 5180830 heartbeat IPC: 3.86365 cumulative IPC: 3.86039 (Simulation time: 0 hr 0 min 32 sec) 

Warmup complete CPU 0 instructions: 25000001 cycles: 6475072 (Simulation time: 0 hr 0 min 40 sec) 

Heartbeat CPU 0 instructions: 30000002 cycles: 29764574 heartbeat IPC: 0.406773 cumulative IPC: 0.214689 (Simulation time: 0 hr 1 min 39 sec) 
Heartbeat CPU 0 instructions: 40000004 cycles: 76408171 heartbeat IPC: 0.214392 cumulative IPC: 0.214491 (Simulation time: 0 hr 3 min 35 sec) 
Heartbeat CPU 0 instructions: 50000001 cycles: 124025933 heartbeat IPC: 0.210006 cumulative IPC: 0.212674 (Simulation time: 0 hr 5 min 31 sec) 
Finished CPU 0 instructions: 25000000 cycles: 117550861 cumulative IPC: 0.212674 (Simulation time: 0 hr 5 min 31 sec) 

ChampSim completed all CPUs

Region of Interest Statistics

CPU 0 cumulative IPC: 0.212674 instructions: 25000000 cycles: 117550861
cpu0_DTLB TOTAL     ACCESS:    4453360  HIT:    4419313  MISS:      34047
cpu0_DTLB LOAD      ACCESS:    1982478  HIT:    1977857  MISS:       4621
cpu0_DTLB RFO       ACCESS:    2470882  HIT:    2441456  MISS:      29426
cpu0_DTLB PREFETCH  ACCESS:          0  HIT:          0  MISS:          0
cpu0_DTLB WRITEBACK ACCESS:          0  HIT:          0  MISS:          0
cpu0_DTLB TRANSLATION ACCESS:          0  HIT:          0  MISS:          0
cpu0_DTLB PREFETCH  REQUESTED:          0  ISSUED:          0  USEFUL:          0  USELESS:          0
cpu0_DTLB AVERAGE MISS LATENCY: 507.854 cycles
cpu0_ITLB TOTAL     ACCESS:     472399  HIT:     472399  MISS:          0
cpu0_ITLB LOAD      ACCESS:     472399  HIT:     472399  MISS:          0
cpu0_ITLB RFO       ACCESS:          0  HIT:          0  MISS:          0
cpu0_ITLB PREFETCH  ACCESS:          0  HIT:          0  MISS:          0
cpu0_ITLB WRITEBACK ACCESS:          0  HIT:          0  MISS:          0
cpu0_ITLB TRANSLATION ACCESS:          0  HIT:          0  MISS:          0
cpu0_ITLB PREFETCH  REQUESTED:          0  ISSUED:          0  USEFUL:          0  USELESS:          0
cpu0_ITLB AVERAGE MISS LATENCY: -nan cycles
cpu0_L1I TOTAL     ACCESS:     551695  HIT:     551695  MISS:          0
cpu0_L1I LOAD      ACCESS:     551695  HIT:     551695  MISS:          0
cpu0_L1I RFO       ACCESS:          0  HIT:          0  MISS:          0
cpu0_L1I PREFETCH  ACCESS:          0  HIT:          0  MISS:          0
cpu0_L1I WRITEBACK ACCESS:          0  HIT:          0  MISS:          0
cpu0_L1I TRANSLATION ACCESS:          0  HIT:          0  MISS:          0
cpu0_L1I PREFETCH  REQUESTED:          0  ISSUED:          0  USEFUL:          0  USELESS:          0
cpu0_L1I AVERAGE MISS LATENCY: -nan cycles
cpu0_STLB TOTAL     ACCESS:      34047  HIT:      15571  MISS:      18476
cpu0_STLB LOAD      ACCESS:       4621  HIT:          0  MISS:       4621
cpu0_STLB RFO       ACCESS:      29426  HIT:      15571  MISS:      13855
cpu0_STLB PREFETCH  ACCESS:          0  HIT:          0  MISS:          0
cpu0_STLB WRITEBACK ACCESS:          0  HIT:          0  MISS:          0
cpu0_STLB TRANSLATION ACCESS:          0  HIT:          0  MISS:          0
cpu0_STLB PREFETCH  REQUESTED:          0  ISSUED:          0  USEFUL:          0  USELESS:          0
cpu0_STLB AVERAGE MISS LATENCY: 919.132 cycles
cpu0_L1D TOTAL     ACCESS:    5913789  HIT:    3963212  MISS:    1950577
cpu0_L1D LOAD      ACCESS:    1406311  HIT:    1110759  MISS:     295552
cpu0_L1D RFO       ACCESS:    4489956  HIT:    2834940  MISS:    1655016
cpu0_L1D PREFETCH  ACCESS:          0  HIT:          0  MISS:          0
cpu0_L1D WRITEBACK ACCESS:          0  HIT:          0  MISS:          0
cpu0_L1D TRANSLATION ACCESS:      17522  HIT:      17513  MISS:          9
cpu0_L1D PREFETCH  REQUESTED:          0  ISSUED:          0  USEFUL:          0  USELESS:          0
cpu0_L1D AVERAGE MISS LATENCY: 756.761 cycles
cpu0_L2C TOTAL     ACCESS:    3610150  HIT:    2399134  MISS:    1211016
cpu0_L2C LOAD      ACCESS:     295552  HIT:       3410  MISS:     292142
cpu0_L2C RFO       ACCESS:    1655016  HIT:     740073  MISS:     914943
cpu0_L2C PREFETCH  ACCESS:       4531  HIT:        667  MISS:       3864
cpu0_L2C WRITEBACK ACCESS:    1655042  HIT:    1654984  MISS:         58
cpu0_L2C TRANSLATION ACCESS:          9  HIT:          0  MISS:          9
cpu0_L2C PREFETCH  REQUESTED:      14289  ISSUED:      13719  USEFUL:       5290  USELESS:        446
cpu0_L2C AVERAGE MISS LATENCY: 1203.62 cycles
LLC TOTAL     ACCESS:    2129235  HIT:     946397  MISS:    1182838
LLC LOAD      ACCESS:     290270  HIT:       2759  MISS:     287511
LLC RFO       ACCESS:     914882  HIT:      28301  MISS:     886581
LLC PREFETCH  ACCESS:       9019  HIT:        326  MISS:       8693
LLC WRITEBACK ACCESS:     915055  HIT:     915011  MISS:         44
LLC TRANSLATION ACCESS:          9  HIT:          0  MISS:          9
LLC PREFETCH  REQUESTED:          0  ISSUED:          0  USEFUL:          0  USELESS:          0
LLC AVERAGE MISS LATENCY: 1216.35 cycles

DRAM Statistics
 CHANNEL 0
 RQ ROW_BUFFER_HIT:      36994  ROW_BUFFER_MISS:    1145800
 DBUS AVG_CONGESTED_CYCLE:    4.00287
 WQ ROW_BUFFER_HIT:      17842  ROW_BUFFER_MISS:     868992  FULL:          0


CPU 0 Branch Prediction Accuracy: 95.9842% MPKI: 0.71772 Average ROB Occupancy at Mispredict: 259.416
Branch type MPKI
BRANCH_DIRECT_JUMP: 0
BRANCH_INDIRECT: 0
BRANCH_CONDITIONAL: 0.71772
BRANCH_DIRECT_CALL: 0
BRANCH_INDIRECT_CALL: 0
BRANCH_RETURN: 0

