
*** ChampSim Multicore Out-of-Order Simulator ***

Warmup Instructions: 25000000
Simulation Instructions: 25000000
Number of CPUs: 1
Off-chip DRAM Size: 4 GiB Channels: 1 Width: 64-bit Data Rate: 3200 MT/s

VirtualMemory physical capacity: 8588881920 num_ppages: 2096895
VirtualMemory page size: 4096 log2_page_size: 12

CPU 0 runs /home/priyansh/Downloads/CS683/Tracefiles/619.lbm_s-2677B.champsimtrace.xz
CPU 0 Bimodal branch predictor
Basic BTB sets: 1024 ways: 8 indirect buffer size: 4096 RAS size: 64
cpu0_L2C Stream plus stride based prefetcher
Heartbeat CPU 0 instructions: 10000001 cycles: 2592643 heartbeat IPC: 3.85707 cumulative IPC: 3.85707 (Simulation time: 0 hr 0 min 16 sec) 
Heartbeat CPU 0 instructions: 20000001 cycles: 5180997 heartbeat IPC: 3.86346 cumulative IPC: 3.86026 (Simulation time: 0 hr 0 min 31 sec) 

Warmup complete CPU 0 instructions: 25000001 cycles: 6475257 (Simulation time: 0 hr 0 min 39 sec) 

Heartbeat CPU 0 instructions: 30000002 cycles: 29822244 heartbeat IPC: 0.405824 cumulative IPC: 0.21416 (Simulation time: 0 hr 1 min 35 sec) 
Heartbeat CPU 0 instructions: 40000004 cycles: 76518106 heartbeat IPC: 0.214152 cumulative IPC: 0.214155 (Simulation time: 0 hr 3 min 29 sec) 
Heartbeat CPU 0 instructions: 50000001 cycles: 124260618 heartbeat IPC: 0.209457 cumulative IPC: 0.21225 (Simulation time: 0 hr 5 min 25 sec) 
Finished CPU 0 instructions: 25000000 cycles: 117785361 cumulative IPC: 0.21225 (Simulation time: 0 hr 5 min 25 sec) 

ChampSim completed all CPUs

Region of Interest Statistics

CPU 0 cumulative IPC: 0.21225 instructions: 25000000 cycles: 117785361
cpu0_DTLB TOTAL     ACCESS:    4453671  HIT:    4419624  MISS:      34047
cpu0_DTLB LOAD      ACCESS:    1982606  HIT:    1977985  MISS:       4621
cpu0_DTLB RFO       ACCESS:    2471065  HIT:    2441639  MISS:      29426
cpu0_DTLB PREFETCH  ACCESS:          0  HIT:          0  MISS:          0
cpu0_DTLB WRITEBACK ACCESS:          0  HIT:          0  MISS:          0
cpu0_DTLB TRANSLATION ACCESS:          0  HIT:          0  MISS:          0
cpu0_DTLB PREFETCH  REQUESTED:          0  ISSUED:          0  USEFUL:          0  USELESS:          0
cpu0_DTLB AVERAGE MISS LATENCY: 517.346 cycles
cpu0_ITLB TOTAL     ACCESS:     472549  HIT:     472549  MISS:          0
cpu0_ITLB LOAD      ACCESS:     472549  HIT:     472549  MISS:          0
cpu0_ITLB RFO       ACCESS:          0  HIT:          0  MISS:          0
cpu0_ITLB PREFETCH  ACCESS:          0  HIT:          0  MISS:          0
cpu0_ITLB WRITEBACK ACCESS:          0  HIT:          0  MISS:          0
cpu0_ITLB TRANSLATION ACCESS:          0  HIT:          0  MISS:          0
cpu0_ITLB PREFETCH  REQUESTED:          0  ISSUED:          0  USEFUL:          0  USELESS:          0
cpu0_ITLB AVERAGE MISS LATENCY: -nan cycles
cpu0_L1I TOTAL     ACCESS:     551993  HIT:     551993  MISS:          0
cpu0_L1I LOAD      ACCESS:     551993  HIT:     551993  MISS:          0
cpu0_L1I RFO       ACCESS:          0  HIT:          0  MISS:          0
cpu0_L1I PREFETCH  ACCESS:          0  HIT:          0  MISS:          0
cpu0_L1I WRITEBACK ACCESS:          0  HIT:          0  MISS:          0
cpu0_L1I TRANSLATION ACCESS:          0  HIT:          0  MISS:          0
cpu0_L1I PREFETCH  REQUESTED:          0  ISSUED:          0  USEFUL:          0  USELESS:          0
cpu0_L1I AVERAGE MISS LATENCY: -nan cycles
cpu0_STLB TOTAL     ACCESS:      34047  HIT:      15571  MISS:      18476
cpu0_STLB LOAD      ACCESS:       4621  HIT:          0  MISS:       4621
cpu0_STLB RFO       ACCESS:      29426  HIT:      15571  MISS:      13855
cpu0_STLB PREFETCH  ACCESS:          0  HIT:          0  MISS:          0
cpu0_STLB WRITEBACK ACCESS:          0  HIT:          0  MISS:          0
cpu0_STLB TRANSLATION ACCESS:          0  HIT:          0  MISS:          0
cpu0_STLB PREFETCH  REQUESTED:          0  ISSUED:          0  USEFUL:          0  USELESS:          0
cpu0_STLB AVERAGE MISS LATENCY: 936.626 cycles
cpu0_L1D TOTAL     ACCESS:    5911873  HIT:    3961301  MISS:    1950572
cpu0_L1D LOAD      ACCESS:    1405900  HIT:    1110351  MISS:     295549
cpu0_L1D RFO       ACCESS:    4488439  HIT:    2833425  MISS:    1655014
cpu0_L1D PREFETCH  ACCESS:          0  HIT:          0  MISS:          0
cpu0_L1D WRITEBACK ACCESS:          0  HIT:          0  MISS:          0
cpu0_L1D TRANSLATION ACCESS:      17534  HIT:      17525  MISS:          9
cpu0_L1D PREFETCH  REQUESTED:          0  ISSUED:          0  USEFUL:          0  USELESS:          0
cpu0_L1D AVERAGE MISS LATENCY: 759.756 cycles
cpu0_L2C TOTAL     ACCESS:    3611095  HIT:    2400649  MISS:    1210446
cpu0_L2C LOAD      ACCESS:     295549  HIT:       4123  MISS:     291426
cpu0_L2C RFO       ACCESS:    1655014  HIT:     740801  MISS:     914213
cpu0_L2C PREFETCH  ACCESS:       5483  HIT:        740  MISS:       4743
cpu0_L2C WRITEBACK ACCESS:    1655040  HIT:    1654985  MISS:         55
cpu0_L2C TRANSLATION ACCESS:          9  HIT:          0  MISS:          9
cpu0_L2C PREFETCH  REQUESTED:      17519  ISSUED:      16887  USEFUL:       6263  USELESS:        595
cpu0_L2C AVERAGE MISS LATENCY: 1209.9 cycles
LLC TOTAL     ACCESS:    2129237  HIT:     946028  MISS:    1183209
LLC LOAD      ACCESS:     289306  HIT:       3829  MISS:     285477
LLC RFO       ACCESS:     914158  HIT:      27575  MISS:     886583
LLC PREFETCH  ACCESS:      11437  HIT:        339  MISS:      11098
LLC WRITEBACK ACCESS:     914327  HIT:     914285  MISS:         42
LLC TRANSLATION ACCESS:          9  HIT:          0  MISS:          9
LLC PREFETCH  REQUESTED:          0  ISSUED:          0  USEFUL:          0  USELESS:          0
LLC AVERAGE MISS LATENCY: 1223.6 cycles

DRAM Statistics
 CHANNEL 0
 RQ ROW_BUFFER_HIT:      37142  ROW_BUFFER_MISS:    1146025
 DBUS AVG_CONGESTED_CYCLE:    4.00299
 WQ ROW_BUFFER_HIT:      17975  ROW_BUFFER_MISS:     868843  FULL:          0


CPU 0 Branch Prediction Accuracy: 95.9842% MPKI: 0.71772 Average ROB Occupancy at Mispredict: 259.615
Branch type MPKI
BRANCH_DIRECT_JUMP: 0
BRANCH_INDIRECT: 0
BRANCH_CONDITIONAL: 0.71772
BRANCH_DIRECT_CALL: 0
BRANCH_INDIRECT_CALL: 0
BRANCH_RETURN: 0

