
*** ChampSim Multicore Out-of-Order Simulator ***

Warmup Instructions: 25000000
Simulation Instructions: 25000000
Number of CPUs: 1
Off-chip DRAM Size: 4 GiB Channels: 1 Width: 64-bit Data Rate: 3200 MT/s

VirtualMemory physical capacity: 8588881920 num_ppages: 2096895
VirtualMemory page size: 4096 log2_page_size: 12

CPU 0 runs /home/priyansh/Downloads/CS683/Tracefiles/bc-0.trace.gz
CPU 0 Bimodal branch predictor
Basic BTB sets: 1024 ways: 8 indirect buffer size: 4096 RAS size: 64
cpu0_L2C Stream plus stride based prefetcher
Heartbeat CPU 0 instructions: 10000002 cycles: 3203422 heartbeat IPC: 3.12166 cumulative IPC: 3.12166 (Simulation time: 0 hr 0 min 21 sec) 
Heartbeat CPU 0 instructions: 20000000 cycles: 5712244 heartbeat IPC: 3.98593 cumulative IPC: 3.50125 (Simulation time: 0 hr 0 min 36 sec) 

Warmup complete CPU 0 instructions: 25000001 cycles: 6963674 (Simulation time: 0 hr 0 min 43 sec) 

Heartbeat CPU 0 instructions: 30000001 cycles: 42816631 heartbeat IPC: 0.26951 cumulative IPC: 0.139459 (Simulation time: 0 hr 1 min 5 sec) 
Heartbeat CPU 0 instructions: 40000002 cycles: 116240784 heartbeat IPC: 0.136195 cumulative IPC: 0.137266 (Simulation time: 0 hr 1 min 51 sec) 
Heartbeat CPU 0 instructions: 50000002 cycles: 189444391 heartbeat IPC: 0.136605 cumulative IPC: 0.137001 (Simulation time: 0 hr 2 min 39 sec) 
Finished CPU 0 instructions: 25000001 cycles: 182480717 cumulative IPC: 0.137001 (Simulation time: 0 hr 2 min 39 sec) 

ChampSim completed all CPUs

Region of Interest Statistics

CPU 0 cumulative IPC: 0.137001 instructions: 25000001 cycles: 182480717
cpu0_DTLB TOTAL     ACCESS:    5781870  HIT:    5048089  MISS:     733781
cpu0_DTLB LOAD      ACCESS:    4554357  HIT:    4076354  MISS:     478003
cpu0_DTLB RFO       ACCESS:    1227513  HIT:     971735  MISS:     255778
cpu0_DTLB PREFETCH  ACCESS:          0  HIT:          0  MISS:          0
cpu0_DTLB WRITEBACK ACCESS:          0  HIT:          0  MISS:          0
cpu0_DTLB TRANSLATION ACCESS:          0  HIT:          0  MISS:          0
cpu0_DTLB PREFETCH  REQUESTED:          0  ISSUED:          0  USEFUL:          0  USELESS:          0
cpu0_DTLB AVERAGE MISS LATENCY: 13.8929 cycles
cpu0_ITLB TOTAL     ACCESS:    3107161  HIT:    3107161  MISS:          0
cpu0_ITLB LOAD      ACCESS:    3107161  HIT:    3107161  MISS:          0
cpu0_ITLB RFO       ACCESS:          0  HIT:          0  MISS:          0
cpu0_ITLB PREFETCH  ACCESS:          0  HIT:          0  MISS:          0
cpu0_ITLB WRITEBACK ACCESS:          0  HIT:          0  MISS:          0
cpu0_ITLB TRANSLATION ACCESS:          0  HIT:          0  MISS:          0
cpu0_ITLB PREFETCH  REQUESTED:          0  ISSUED:          0  USEFUL:          0  USELESS:          0
cpu0_ITLB AVERAGE MISS LATENCY: -nan cycles
cpu0_L1I TOTAL     ACCESS:         86  HIT:         86  MISS:          0
cpu0_L1I LOAD      ACCESS:         86  HIT:         86  MISS:          0
cpu0_L1I RFO       ACCESS:          0  HIT:          0  MISS:          0
cpu0_L1I PREFETCH  ACCESS:          0  HIT:          0  MISS:          0
cpu0_L1I WRITEBACK ACCESS:          0  HIT:          0  MISS:          0
cpu0_L1I TRANSLATION ACCESS:          0  HIT:          0  MISS:          0
cpu0_L1I PREFETCH  REQUESTED:          0  ISSUED:          0  USEFUL:          0  USELESS:          0
cpu0_L1I AVERAGE MISS LATENCY: -nan cycles
cpu0_STLB TOTAL     ACCESS:     733781  HIT:     397123  MISS:     336658
cpu0_STLB LOAD      ACCESS:     478003  HIT:     310208  MISS:     167795
cpu0_STLB RFO       ACCESS:     255778  HIT:      86915  MISS:     168863
cpu0_STLB PREFETCH  ACCESS:          0  HIT:          0  MISS:          0
cpu0_STLB WRITEBACK ACCESS:          0  HIT:          0  MISS:          0
cpu0_STLB TRANSLATION ACCESS:          0  HIT:          0  MISS:          0
cpu0_STLB PREFETCH  REQUESTED:          0  ISSUED:          0  USEFUL:          0  USELESS:          0
cpu0_STLB AVERAGE MISS LATENCY: 10.4796 cycles
cpu0_L1D TOTAL     ACCESS:    6847733  HIT:    4761037  MISS:    2086696
cpu0_L1D LOAD      ACCESS:    5221774  HIT:    3147504  MISS:    2074270
cpu0_L1D RFO       ACCESS:    1298882  HIT:    1287850  MISS:      11032
cpu0_L1D PREFETCH  ACCESS:          0  HIT:          0  MISS:          0
cpu0_L1D WRITEBACK ACCESS:          0  HIT:          0  MISS:          0
cpu0_L1D TRANSLATION ACCESS:     327077  HIT:     325683  MISS:       1394
cpu0_L1D PREFETCH  REQUESTED:          0  ISSUED:          0  USEFUL:          0  USELESS:          0
cpu0_L1D AVERAGE MISS LATENCY: 163.441 cycles
cpu0_L2C TOTAL     ACCESS:    2735658  HIT:     881334  MISS:    1854324
cpu0_L2C LOAD      ACCESS:    2074270  HIT:     231009  MISS:    1843261
cpu0_L2C RFO       ACCESS:      11032  HIT:        137  MISS:      10895
cpu0_L2C PREFETCH  ACCESS:        140  HIT:         32  MISS:        108
cpu0_L2C WRITEBACK ACCESS:     648822  HIT:     648809  MISS:         13
cpu0_L2C TRANSLATION ACCESS:       1394  HIT:       1347  MISS:         47
cpu0_L2C PREFETCH  REQUESTED:        918  ISSUED:        914  USEFUL:        336  USELESS:         36
cpu0_L2C AVERAGE MISS LATENCY: 171.253 cycles
LLC TOTAL     ACCESS:    2488060  HIT:    1273503  MISS:    1214557
LLC LOAD      ACCESS:    1842997  HIT:     639316  MISS:    1203681
LLC RFO       ACCESS:      10895  HIT:        543  MISS:      10352
LLC PREFETCH  ACCESS:        484  HIT:         64  MISS:        420
LLC WRITEBACK ACCESS:     633637  HIT:     633569  MISS:         68
LLC TRANSLATION ACCESS:         47  HIT:         11  MISS:         36
LLC PREFETCH  REQUESTED:          0  ISSUED:          0  USEFUL:          0  USELESS:          0
LLC AVERAGE MISS LATENCY: 229.48 cycles

DRAM Statistics
 CHANNEL 0
 RQ ROW_BUFFER_HIT:      53658  ROW_BUFFER_MISS:    1160122
 DBUS AVG_CONGESTED_CYCLE:    3.95811
 WQ ROW_BUFFER_HIT:       1130  ROW_BUFFER_MISS:     533856  FULL:          0


CPU 0 Branch Prediction Accuracy: 81.1279% MPKI: 35.6282 Average ROB Occupancy at Mispredict: 22.5011
Branch type MPKI
BRANCH_DIRECT_JUMP: 0
BRANCH_INDIRECT: 0
BRANCH_CONDITIONAL: 35.6282
BRANCH_DIRECT_CALL: 0
BRANCH_INDIRECT_CALL: 0
BRANCH_RETURN: 0

