
*** ChampSim Multicore Out-of-Order Simulator ***

Warmup Instructions: 25000000
Simulation Instructions: 25000000
Number of CPUs: 1
Off-chip DRAM Size: 4 GiB Channels: 1 Width: 64-bit Data Rate: 3200 MT/s

VirtualMemory physical capacity: 8588881920 num_ppages: 2096895
VirtualMemory page size: 4096 log2_page_size: 12

CPU 0 runs /home/priyansh/Downloads/CS683/Tracefiles/bc-0.trace.gz
CPU 0 Bimodal branch predictor
Basic BTB sets: 1024 ways: 8 indirect buffer size: 4096 RAS size: 64
cpu0_L2C Stream plus stride based prefetcher
Heartbeat CPU 0 instructions: 10000002 cycles: 3203421 heartbeat IPC: 3.12166 cumulative IPC: 3.12166 (Simulation time: 0 hr 0 min 27 sec) 
Heartbeat CPU 0 instructions: 20000002 cycles: 5712244 heartbeat IPC: 3.98593 cumulative IPC: 3.50125 (Simulation time: 0 hr 0 min 47 sec) 

Warmup complete CPU 0 instructions: 25000001 cycles: 6963674 (Simulation time: 0 hr 0 min 56 sec) 

Heartbeat CPU 0 instructions: 30000001 cycles: 40171952 heartbeat IPC: 0.290194 cumulative IPC: 0.150565 (Simulation time: 0 hr 1 min 25 sec) 
