
*** ChampSim Multicore Out-of-Order Simulator ***

Warmup Instructions: 25000000
Simulation Instructions: 25000000
Number of CPUs: 1
Off-chip DRAM Size: 4 GiB Channels: 1 Width: 64-bit Data Rate: 3200 MT/s

VirtualMemory physical capacity: 8588881920 num_ppages: 2096895
VirtualMemory page size: 4096 log2_page_size: 12

CPU 0 runs /home/priyansh/Downloads/CS683/Tracefiles/bc-0.trace.gz
CPU 0 Bimodal branch predictor
Basic BTB sets: 1024 ways: 8 indirect buffer size: 4096 RAS size: 64
cpu0_L2C Stream throttling prefetcher
Heartbeat CPU 0 instructions: 10000002 cycles: 3203425 heartbeat IPC: 3.12166 cumulative IPC: 3.12166 (Simulation time: 0 hr 0 min 19 sec) 
Heartbeat CPU 0 instructions: 20000002 cycles: 5712251 heartbeat IPC: 3.98593 cumulative IPC: 3.50125 (Simulation time: 0 hr 0 min 33 sec) 

Warmup complete CPU 0 instructions: 25000001 cycles: 6963682 (Simulation time: 0 hr 0 min 40 sec) 

Heartbeat CPU 0 instructions: 30000001 cycles: 40086017 heartbeat IPC: 0.29092 cumulative IPC: 0.150956 (Simulation time: 0 hr 1 min 1 sec) 
Heartbeat CPU 0 instructions: 40000002 cycles: 108128341 heartbeat IPC: 0.146967 cumulative IPC: 0.148273 (Simulation time: 0 hr 1 min 42 sec) 
Heartbeat CPU 0 instructions: 50000002 cycles: 175872852 heartbeat IPC: 0.147613 cumulative IPC: 0.148009 (Simulation time: 0 hr 2 min 24 sec) 
Finished CPU 0 instructions: 25000001 cycles: 168909170 cumulative IPC: 0.148009 (Simulation time: 0 hr 2 min 24 sec) 

ChampSim completed all CPUs

Region of Interest Statistics

CPU 0 cumulative IPC: 0.148009 instructions: 25000001 cycles: 168909170
cpu0_DTLB TOTAL     ACCESS:    5777251  HIT:    5043470  MISS:     733781
cpu0_DTLB LOAD      ACCESS:    4549829  HIT:    4072607  MISS:     477222
cpu0_DTLB RFO       ACCESS:    1227422  HIT:     970863  MISS:     256559
cpu0_DTLB PREFETCH  ACCESS:          0  HIT:          0  MISS:          0
cpu0_DTLB WRITEBACK ACCESS:          0  HIT:          0  MISS:          0
cpu0_DTLB TRANSLATION ACCESS:          0  HIT:          0  MISS:          0
cpu0_DTLB PREFETCH  REQUESTED:          0  ISSUED:          0  USEFUL:          0  USELESS:          0
cpu0_DTLB AVERAGE MISS LATENCY: 13.8871 cycles
cpu0_ITLB TOTAL     ACCESS:    3107161  HIT:    3107161  MISS:          0
cpu0_ITLB LOAD      ACCESS:    3107161  HIT:    3107161  MISS:          0
cpu0_ITLB RFO       ACCESS:          0  HIT:          0  MISS:          0
cpu0_ITLB PREFETCH  ACCESS:          0  HIT:          0  MISS:          0
cpu0_ITLB WRITEBACK ACCESS:          0  HIT:          0  MISS:          0
cpu0_ITLB TRANSLATION ACCESS:          0  HIT:          0  MISS:          0
cpu0_ITLB PREFETCH  REQUESTED:          0  ISSUED:          0  USEFUL:          0  USELESS:          0
cpu0_ITLB AVERAGE MISS LATENCY: -nan cycles
cpu0_L1I TOTAL     ACCESS:         86  HIT:         86  MISS:          0
cpu0_L1I LOAD      ACCESS:         86  HIT:         86  MISS:          0
cpu0_L1I RFO       ACCESS:          0  HIT:          0  MISS:          0
cpu0_L1I PREFETCH  ACCESS:          0  HIT:          0  MISS:          0
cpu0_L1I WRITEBACK ACCESS:          0  HIT:          0  MISS:          0
cpu0_L1I TRANSLATION ACCESS:          0  HIT:          0  MISS:          0
cpu0_L1I PREFETCH  REQUESTED:          0  ISSUED:          0  USEFUL:          0  USELESS:          0
cpu0_L1I AVERAGE MISS LATENCY: -nan cycles
cpu0_STLB TOTAL     ACCESS:     733781  HIT:     397123  MISS:     336658
cpu0_STLB LOAD      ACCESS:     477222  HIT:     309953  MISS:     167269
cpu0_STLB RFO       ACCESS:     256559  HIT:      87170  MISS:     169389
cpu0_STLB PREFETCH  ACCESS:          0  HIT:          0  MISS:          0
cpu0_STLB WRITEBACK ACCESS:          0  HIT:          0  MISS:          0
cpu0_STLB TRANSLATION ACCESS:          0  HIT:          0  MISS:          0
cpu0_STLB PREFETCH  REQUESTED:          0  ISSUED:          0  USEFUL:          0  USELESS:          0
cpu0_STLB AVERAGE MISS LATENCY: 10.4725 cycles
cpu0_L1D TOTAL     ACCESS:    6857751  HIT:    4771053  MISS:    2086698
cpu0_L1D LOAD      ACCESS:    5231091  HIT:    3156819  MISS:    2074272
cpu0_L1D RFO       ACCESS:    1299124  HIT:    1288092  MISS:      11032
cpu0_L1D PREFETCH  ACCESS:          0  HIT:          0  MISS:          0
cpu0_L1D WRITEBACK ACCESS:          0  HIT:          0  MISS:          0
cpu0_L1D TRANSLATION ACCESS:     327536  HIT:     326142  MISS:       1394
cpu0_L1D PREFETCH  REQUESTED:          0  ISSUED:          0  USEFUL:          0  USELESS:          0
cpu0_L1D AVERAGE MISS LATENCY: 159.491 cycles
cpu0_L2C TOTAL     ACCESS:    2862481  HIT:     984152  MISS:    1878329
cpu0_L2C LOAD      ACCESS:    2074272  HIT:     316403  MISS:    1757869
cpu0_L2C RFO       ACCESS:      11032  HIT:        131  MISS:      10901
cpu0_L2C PREFETCH  ACCESS:     126961  HIT:      17463  MISS:     109498
cpu0_L2C WRITEBACK ACCESS:     648822  HIT:     648809  MISS:         13
cpu0_L2C TRANSLATION ACCESS:       1394  HIT:       1346  MISS:         48
cpu0_L2C PREFETCH  REQUESTED:     133637  ISSUED:     133606  USEFUL:      91843  USELESS:      20394
cpu0_L2C AVERAGE MISS LATENCY: 179.427 cycles
LLC TOTAL     ACCESS:    2512833  HIT:    1270924  MISS:    1241909
LLC LOAD      ACCESS:    1755139  HIT:     633428  MISS:    1121711
LLC RFO       ACCESS:      10901  HIT:        534  MISS:      10367
LLC PREFETCH  ACCESS:     112919  HIT:       3193  MISS:     109726
LLC WRITEBACK ACCESS:     633826  HIT:     633758  MISS:         68
LLC TRANSLATION ACCESS:         48  HIT:         11  MISS:         37
LLC PREFETCH  REQUESTED:          0  ISSUED:          0  USEFUL:          0  USELESS:          0
LLC AVERAGE MISS LATENCY: 240.357 cycles

DRAM Statistics
 CHANNEL 0
 RQ ROW_BUFFER_HIT:      61160  ROW_BUFFER_MISS:    1180020
 DBUS AVG_CONGESTED_CYCLE:    3.96374
 WQ ROW_BUFFER_HIT:       1004  ROW_BUFFER_MISS:     535872  FULL:          0


CPU 0 Branch Prediction Accuracy: 81.1279% MPKI: 35.6282 Average ROB Occupancy at Mispredict: 23.8762
Branch type MPKI
BRANCH_DIRECT_JUMP: 0
BRANCH_INDIRECT: 0
BRANCH_CONDITIONAL: 35.6282
BRANCH_DIRECT_CALL: 0
BRANCH_INDIRECT_CALL: 0
BRANCH_RETURN: 0

