
*** ChampSim Multicore Out-of-Order Simulator ***

Warmup Instructions: 25000000
Simulation Instructions: 25000000
Number of CPUs: 1
Off-chip DRAM Size: 4 GiB Channels: 1 Width: 64-bit Data Rate: 3200 MT/s

VirtualMemory physical capacity: 8588881920 num_ppages: 2096895
VirtualMemory page size: 4096 log2_page_size: 12

CPU 0 runs /home/priyansh/Downloads/CS683/Tracefiles/bc-0.trace.gz
CPU 0 Bimodal branch predictor
Basic BTB sets: 1024 ways: 8 indirect buffer size: 4096 RAS size: 64
cpu0_L2C Stream plus stride based prefetcher
Heartbeat CPU 0 instructions: 10000002 cycles: 3203417 heartbeat IPC: 3.12167 cumulative IPC: 3.12167 (Simulation time: 0 hr 0 min 20 sec) 
Heartbeat CPU 0 instructions: 20000000 cycles: 5712241 heartbeat IPC: 3.98593 cumulative IPC: 3.50125 (Simulation time: 0 hr 0 min 35 sec) 

Warmup complete CPU 0 instructions: 25000004 cycles: 6963672 (Simulation time: 0 hr 0 min 42 sec) 

Heartbeat CPU 0 instructions: 30000001 cycles: 40197320 heartbeat IPC: 0.289981 cumulative IPC: 0.15045 (Simulation time: 0 hr 1 min 3 sec) 
Heartbeat CPU 0 instructions: 40000002 cycles: 108386121 heartbeat IPC: 0.146652 cumulative IPC: 0.147896 (Simulation time: 0 hr 1 min 45 sec) 
Heartbeat CPU 0 instructions: 50000002 cycles: 176247464 heartbeat IPC: 0.147359 cumulative IPC: 0.147681 (Simulation time: 0 hr 2 min 28 sec) 
Finished CPU 0 instructions: 25000003 cycles: 169283793 cumulative IPC: 0.147681 (Simulation time: 0 hr 2 min 28 sec) 

ChampSim completed all CPUs

Region of Interest Statistics

CPU 0 cumulative IPC: 0.147681 instructions: 25000003 cycles: 169283793
cpu0_DTLB TOTAL     ACCESS:    5777652  HIT:    5043871  MISS:     733781
cpu0_DTLB LOAD      ACCESS:    4550152  HIT:    4072907  MISS:     477245
cpu0_DTLB RFO       ACCESS:    1227500  HIT:     970964  MISS:     256536
cpu0_DTLB PREFETCH  ACCESS:          0  HIT:          0  MISS:          0
cpu0_DTLB WRITEBACK ACCESS:          0  HIT:          0  MISS:          0
cpu0_DTLB TRANSLATION ACCESS:          0  HIT:          0  MISS:          0
cpu0_DTLB PREFETCH  REQUESTED:          0  ISSUED:          0  USEFUL:          0  USELESS:          0
cpu0_DTLB AVERAGE MISS LATENCY: 13.8685 cycles
cpu0_ITLB TOTAL     ACCESS:    3107161  HIT:    3107161  MISS:          0
cpu0_ITLB LOAD      ACCESS:    3107161  HIT:    3107161  MISS:          0
cpu0_ITLB RFO       ACCESS:          0  HIT:          0  MISS:          0
cpu0_ITLB PREFETCH  ACCESS:          0  HIT:          0  MISS:          0
cpu0_ITLB WRITEBACK ACCESS:          0  HIT:          0  MISS:          0
cpu0_ITLB TRANSLATION ACCESS:          0  HIT:          0  MISS:          0
cpu0_ITLB PREFETCH  REQUESTED:          0  ISSUED:          0  USEFUL:          0  USELESS:          0
cpu0_ITLB AVERAGE MISS LATENCY: -nan cycles
cpu0_L1I TOTAL     ACCESS:         86  HIT:         86  MISS:          0
cpu0_L1I LOAD      ACCESS:         86  HIT:         86  MISS:          0
cpu0_L1I RFO       ACCESS:          0  HIT:          0  MISS:          0
cpu0_L1I PREFETCH  ACCESS:          0  HIT:          0  MISS:          0
cpu0_L1I WRITEBACK ACCESS:          0  HIT:          0  MISS:          0
cpu0_L1I TRANSLATION ACCESS:          0  HIT:          0  MISS:          0
cpu0_L1I PREFETCH  REQUESTED:          0  ISSUED:          0  USEFUL:          0  USELESS:          0
cpu0_L1I AVERAGE MISS LATENCY: -nan cycles
cpu0_STLB TOTAL     ACCESS:     733781  HIT:     397123  MISS:     336658
cpu0_STLB LOAD      ACCESS:     477245  HIT:     309960  MISS:     167285
cpu0_STLB RFO       ACCESS:     256536  HIT:      87163  MISS:     169373
cpu0_STLB PREFETCH  ACCESS:          0  HIT:          0  MISS:          0
cpu0_STLB WRITEBACK ACCESS:          0  HIT:          0  MISS:          0
cpu0_STLB TRANSLATION ACCESS:          0  HIT:          0  MISS:          0
cpu0_STLB PREFETCH  REQUESTED:          0  ISSUED:          0  USEFUL:          0  USELESS:          0
cpu0_STLB AVERAGE MISS LATENCY: 10.4315 cycles
cpu0_L1D TOTAL     ACCESS:    6857897  HIT:    4771200  MISS:    2086697
cpu0_L1D LOAD      ACCESS:    5231279  HIT:    3157008  MISS:    2074271
cpu0_L1D RFO       ACCESS:    1299098  HIT:    1288066  MISS:      11032
cpu0_L1D PREFETCH  ACCESS:          0  HIT:          0  MISS:          0
cpu0_L1D WRITEBACK ACCESS:          0  HIT:          0  MISS:          0
cpu0_L1D TRANSLATION ACCESS:     327520  HIT:     326126  MISS:       1394
cpu0_L1D PREFETCH  REQUESTED:          0  ISSUED:          0  USEFUL:          0  USELESS:          0
cpu0_L1D AVERAGE MISS LATENCY: 159.441 cycles
cpu0_L2C TOTAL     ACCESS:    2830937  HIT:     963772  MISS:    1867165
cpu0_L2C LOAD      ACCESS:    2074271  HIT:     313372  MISS:    1760899
cpu0_L2C RFO       ACCESS:      11032  HIT:        133  MISS:      10899
cpu0_L2C PREFETCH  ACCESS:      95419  HIT:        112  MISS:      95307
cpu0_L2C WRITEBACK ACCESS:     648821  HIT:     648808  MISS:         13
cpu0_L2C TRANSLATION ACCESS:       1394  HIT:       1347  MISS:         47
cpu0_L2C PREFETCH  REQUESTED:      99865  ISSUED:      99848  USEFUL:      85351  USELESS:      11304
cpu0_L2C AVERAGE MISS LATENCY: 178.358 cycles
LLC TOTAL     ACCESS:    2501703  HIT:    1271416  MISS:    1230287
LLC LOAD      ACCESS:    1759530  HIT:     636568  MISS:    1122962
LLC RFO       ACCESS:      10899  HIT:        537  MISS:      10362
LLC PREFETCH  ACCESS:      97465  HIT:        605  MISS:      96860
LLC WRITEBACK ACCESS:     633762  HIT:     633695  MISS:         67
LLC TRANSLATION ACCESS:         47  HIT:         11  MISS:         36
LLC PREFETCH  REQUESTED:          0  ISSUED:          0  USEFUL:          0  USELESS:          0
LLC AVERAGE MISS LATENCY: 239.14 cycles

DRAM Statistics
 CHANNEL 0
 RQ ROW_BUFFER_HIT:      58054  ROW_BUFFER_MISS:    1171517
 DBUS AVG_CONGESTED_CYCLE:    3.96311
 WQ ROW_BUFFER_HIT:       1033  ROW_BUFFER_MISS:     534993  FULL:          0


CPU 0 Branch Prediction Accuracy: 81.1279% MPKI: 35.6282 Average ROB Occupancy at Mispredict: 23.8021
Branch type MPKI
BRANCH_DIRECT_JUMP: 0
BRANCH_INDIRECT: 0
BRANCH_CONDITIONAL: 35.6282
BRANCH_DIRECT_CALL: 0
BRANCH_INDIRECT_CALL: 0
BRANCH_RETURN: 0

