
*** ChampSim Multicore Out-of-Order Simulator ***

Warmup Instructions: 25000000
Simulation Instructions: 25000000
Number of CPUs: 1
Off-chip DRAM Size: 4 GiB Channels: 1 Width: 64-bit Data Rate: 3200 MT/s

VirtualMemory physical capacity: 8588881920 num_ppages: 2096895
VirtualMemory page size: 4096 log2_page_size: 12

CPU 0 runs /home/priyansh/Downloads/CS683/Tracefiles/sssp-3.trace.gz
CPU 0 Bimodal branch predictor
Basic BTB sets: 1024 ways: 8 indirect buffer size: 4096 RAS size: 64
cpu0_L2C IP-based stride throttling prefetcher
Heartbeat CPU 0 instructions: 10000002 cycles: 2980386 heartbeat IPC: 3.35527 cumulative IPC: 3.35527 (Simulation time: 0 hr 0 min 17 sec) 
Heartbeat CPU 0 instructions: 20000001 cycles: 6362326 heartbeat IPC: 2.95688 cumulative IPC: 3.1435 (Simulation time: 0 hr 0 min 37 sec) 

Warmup complete CPU 0 instructions: 25000004 cycles: 8126907 (Simulation time: 0 hr 0 min 48 sec) 

Heartbeat CPU 0 instructions: 30000002 cycles: 23134678 heartbeat IPC: 0.596219 cumulative IPC: 0.333161 (Simulation time: 0 hr 1 min 2 sec) 
Heartbeat CPU 0 instructions: 40000001 cycles: 54004870 heartbeat IPC: 0.323937 cumulative IPC: 0.326954 (Simulation time: 0 hr 1 min 31 sec) 
Heartbeat CPU 0 instructions: 50000002 cycles: 83658027 heartbeat IPC: 0.337232 cumulative IPC: 0.330989 (Simulation time: 0 hr 2 min 1 sec) 
Finished CPU 0 instructions: 25000000 cycles: 75531138 cumulative IPC: 0.330989 (Simulation time: 0 hr 2 min 1 sec) 

ChampSim completed all CPUs

Region of Interest Statistics

CPU 0 cumulative IPC: 0.330989 instructions: 25000000 cycles: 75531138
cpu0_DTLB TOTAL     ACCESS:    6304234  HIT:    5866668  MISS:     437566
cpu0_DTLB LOAD      ACCESS:    5879663  HIT:    5599301  MISS:     280362
cpu0_DTLB RFO       ACCESS:     424571  HIT:     267367  MISS:     157204
cpu0_DTLB PREFETCH  ACCESS:          0  HIT:          0  MISS:          0
cpu0_DTLB WRITEBACK ACCESS:          0  HIT:          0  MISS:          0
cpu0_DTLB TRANSLATION ACCESS:          0  HIT:          0  MISS:          0
cpu0_DTLB PREFETCH  REQUESTED:          0  ISSUED:          0  USEFUL:          0  USELESS:          0
cpu0_DTLB AVERAGE MISS LATENCY: 11.316 cycles
cpu0_ITLB TOTAL     ACCESS:    2383704  HIT:    2383704  MISS:          0
cpu0_ITLB LOAD      ACCESS:    2383704  HIT:    2383704  MISS:          0
cpu0_ITLB RFO       ACCESS:          0  HIT:          0  MISS:          0
cpu0_ITLB PREFETCH  ACCESS:          0  HIT:          0  MISS:          0
cpu0_ITLB WRITEBACK ACCESS:          0  HIT:          0  MISS:          0
cpu0_ITLB TRANSLATION ACCESS:          0  HIT:          0  MISS:          0
cpu0_ITLB PREFETCH  REQUESTED:          0  ISSUED:          0  USEFUL:          0  USELESS:          0
cpu0_ITLB AVERAGE MISS LATENCY: -nan cycles
cpu0_L1I TOTAL     ACCESS:      10710  HIT:      10710  MISS:          0
cpu0_L1I LOAD      ACCESS:      10710  HIT:      10710  MISS:          0
cpu0_L1I RFO       ACCESS:          0  HIT:          0  MISS:          0
cpu0_L1I PREFETCH  ACCESS:          0  HIT:          0  MISS:          0
cpu0_L1I WRITEBACK ACCESS:          0  HIT:          0  MISS:          0
cpu0_L1I TRANSLATION ACCESS:          0  HIT:          0  MISS:          0
cpu0_L1I PREFETCH  REQUESTED:          0  ISSUED:          0  USEFUL:          0  USELESS:          0
cpu0_L1I AVERAGE MISS LATENCY: -nan cycles
cpu0_STLB TOTAL     ACCESS:     437566  HIT:     432136  MISS:       5430
cpu0_STLB LOAD      ACCESS:     280362  HIT:     275675  MISS:       4687
cpu0_STLB RFO       ACCESS:     157204  HIT:     156461  MISS:        743
cpu0_STLB PREFETCH  ACCESS:          0  HIT:          0  MISS:          0
cpu0_STLB WRITEBACK ACCESS:          0  HIT:          0  MISS:          0
cpu0_STLB TRANSLATION ACCESS:          0  HIT:          0  MISS:          0
cpu0_STLB PREFETCH  REQUESTED:          0  ISSUED:          0  USEFUL:          0  USELESS:          0
cpu0_STLB AVERAGE MISS LATENCY: 177.753 cycles
cpu0_L1D TOTAL     ACCESS:    6521105  HIT:    5278913  MISS:    1242192
cpu0_L1D LOAD      ACCESS:    5885968  HIT:    4760173  MISS:    1125795
cpu0_L1D RFO       ACCESS:     629732  HIT:     515285  MISS:     114447
cpu0_L1D PREFETCH  ACCESS:          0  HIT:          0  MISS:          0
cpu0_L1D WRITEBACK ACCESS:          0  HIT:          0  MISS:          0
cpu0_L1D TRANSLATION ACCESS:       5405  HIT:       3455  MISS:       1950
cpu0_L1D PREFETCH  REQUESTED:          0  ISSUED:          0  USEFUL:          0  USELESS:          0
cpu0_L1D AVERAGE MISS LATENCY: 109.359 cycles
cpu0_L2C TOTAL     ACCESS:    2060879  HIT:    1001497  MISS:    1059382
cpu0_L2C LOAD      ACCESS:    1125786  HIT:     332795  MISS:     792991
cpu0_L2C RFO       ACCESS:     114439  HIT:      78583  MISS:      35856
cpu0_L2C PREFETCH  ACCESS:     470623  HIT:     242043  MISS:     228580
cpu0_L2C WRITEBACK ACCESS:     348081  HIT:     346623  MISS:       1458
cpu0_L2C TRANSLATION ACCESS:       1950  HIT:       1453  MISS:        497
cpu0_L2C PREFETCH  REQUESTED:     584652  ISSUED:     555582  USEFUL:     170977  USELESS:      77651
cpu0_L2C AVERAGE MISS LATENCY: 154.118 cycles
LLC TOTAL     ACCESS:    1294727  HIT:     644119  MISS:     650608
LLC LOAD      ACCESS:     772983  HIT:     374408  MISS:     398575
LLC RFO       ACCESS:      35856  HIT:      10167  MISS:      25689
LLC PREFETCH  ACCESS:     249926  HIT:      25695  MISS:     224231
LLC WRITEBACK ACCESS:     235465  HIT:     233583  MISS:       1882
LLC TRANSLATION ACCESS:        497  HIT:        266  MISS:        231
LLC PREFETCH  REQUESTED:          0  ISSUED:          0  USEFUL:          0  USELESS:          0
LLC AVERAGE MISS LATENCY: 227.445 cycles

DRAM Statistics
 CHANNEL 0
 RQ ROW_BUFFER_HIT:      83443  ROW_BUFFER_MISS:     564916
 DBUS AVG_CONGESTED_CYCLE:    3.94228
 WQ ROW_BUFFER_HIT:      35533  ROW_BUFFER_MISS:     169875  FULL:          0


CPU 0 Branch Prediction Accuracy: 91.1986% MPKI: 12.9566 Average ROB Occupancy at Mispredict: 52.2939
Branch type MPKI
BRANCH_DIRECT_JUMP: 0
BRANCH_INDIRECT: 0
BRANCH_CONDITIONAL: 12.9566
BRANCH_DIRECT_CALL: 0
BRANCH_INDIRECT_CALL: 0
BRANCH_RETURN: 0

