
*** ChampSim Multicore Out-of-Order Simulator ***

Warmup Instructions: 25000000
Simulation Instructions: 25000000
Number of CPUs: 1
Off-chip DRAM Size: 4 GiB Channels: 1 Width: 64-bit Data Rate: 3200 MT/s

VirtualMemory physical capacity: 8588881920 num_ppages: 2096895
VirtualMemory page size: 4096 log2_page_size: 12

CPU 0 runs /home/priyansh/Downloads/CS683/Tracefiles/sssp-3.trace.gz
CPU 0 Bimodal branch predictor
Basic BTB sets: 1024 ways: 8 indirect buffer size: 4096 RAS size: 64
cpu0_L2C Stream plus stride based prefetcher
Heartbeat CPU 0 instructions: 10000002 cycles: 2980419 heartbeat IPC: 3.35523 cumulative IPC: 3.35523 (Simulation time: 0 hr 0 min 17 sec) 
Heartbeat CPU 0 instructions: 20000001 cycles: 6362370 heartbeat IPC: 2.95687 cumulative IPC: 3.14348 (Simulation time: 0 hr 0 min 37 sec) 

Warmup complete CPU 0 instructions: 25000004 cycles: 8126951 (Simulation time: 0 hr 0 min 48 sec) 

Heartbeat CPU 0 instructions: 30000002 cycles: 25324255 heartbeat IPC: 0.527374 cumulative IPC: 0.290743 (Simulation time: 0 hr 1 min 4 sec) 
Heartbeat CPU 0 instructions: 40000001 cycles: 60222543 heartbeat IPC: 0.286547 cumulative IPC: 0.287932 (Simulation time: 0 hr 1 min 37 sec) 
Heartbeat CPU 0 instructions: 50000002 cycles: 94748752 heartbeat IPC: 0.289635 cumulative IPC: 0.288611 (Simulation time: 0 hr 2 min 12 sec) 
Finished CPU 0 instructions: 25000000 cycles: 86621819 cumulative IPC: 0.288611 (Simulation time: 0 hr 2 min 12 sec) 

ChampSim completed all CPUs

Region of Interest Statistics

CPU 0 cumulative IPC: 0.288611 instructions: 25000000 cycles: 86621819
cpu0_DTLB TOTAL     ACCESS:    6313353  HIT:    5875772  MISS:     437581
cpu0_DTLB LOAD      ACCESS:    5888527  HIT:    5608363  MISS:     280164
cpu0_DTLB RFO       ACCESS:     424826  HIT:     267409  MISS:     157417
cpu0_DTLB PREFETCH  ACCESS:          0  HIT:          0  MISS:          0
cpu0_DTLB WRITEBACK ACCESS:          0  HIT:          0  MISS:          0
cpu0_DTLB TRANSLATION ACCESS:          0  HIT:          0  MISS:          0
cpu0_DTLB PREFETCH  REQUESTED:          0  ISSUED:          0  USEFUL:          0  USELESS:          0
cpu0_DTLB AVERAGE MISS LATENCY: 11.3258 cycles
cpu0_ITLB TOTAL     ACCESS:    2383447  HIT:    2383447  MISS:          0
cpu0_ITLB LOAD      ACCESS:    2383447  HIT:    2383447  MISS:          0
cpu0_ITLB RFO       ACCESS:          0  HIT:          0  MISS:          0
cpu0_ITLB PREFETCH  ACCESS:          0  HIT:          0  MISS:          0
cpu0_ITLB WRITEBACK ACCESS:          0  HIT:          0  MISS:          0
cpu0_ITLB TRANSLATION ACCESS:          0  HIT:          0  MISS:          0
cpu0_ITLB PREFETCH  REQUESTED:          0  ISSUED:          0  USEFUL:          0  USELESS:          0
cpu0_ITLB AVERAGE MISS LATENCY: -nan cycles
cpu0_L1I TOTAL     ACCESS:      10709  HIT:      10709  MISS:          0
cpu0_L1I LOAD      ACCESS:      10709  HIT:      10709  MISS:          0
cpu0_L1I RFO       ACCESS:          0  HIT:          0  MISS:          0
cpu0_L1I PREFETCH  ACCESS:          0  HIT:          0  MISS:          0
cpu0_L1I WRITEBACK ACCESS:          0  HIT:          0  MISS:          0
cpu0_L1I TRANSLATION ACCESS:          0  HIT:          0  MISS:          0
cpu0_L1I PREFETCH  REQUESTED:          0  ISSUED:          0  USEFUL:          0  USELESS:          0
cpu0_L1I AVERAGE MISS LATENCY: -nan cycles
cpu0_STLB TOTAL     ACCESS:     437581  HIT:     432151  MISS:       5430
cpu0_STLB LOAD      ACCESS:     280164  HIT:     275479  MISS:       4685
cpu0_STLB RFO       ACCESS:     157417  HIT:     156672  MISS:        745
cpu0_STLB PREFETCH  ACCESS:          0  HIT:          0  MISS:          0
cpu0_STLB WRITEBACK ACCESS:          0  HIT:          0  MISS:          0
cpu0_STLB TRANSLATION ACCESS:          0  HIT:          0  MISS:          0
cpu0_STLB PREFETCH  REQUESTED:          0  ISSUED:          0  USEFUL:          0  USELESS:          0
cpu0_STLB AVERAGE MISS LATENCY: 180.282 cycles
cpu0_L1D TOTAL     ACCESS:    6193598  HIT:    4951412  MISS:    1242186
cpu0_L1D LOAD      ACCESS:    5558209  HIT:    4432421  MISS:    1125788
cpu0_L1D RFO       ACCESS:     629986  HIT:     515539  MISS:     114447
cpu0_L1D PREFETCH  ACCESS:          0  HIT:          0  MISS:          0
cpu0_L1D WRITEBACK ACCESS:          0  HIT:          0  MISS:          0
cpu0_L1D TRANSLATION ACCESS:       5403  HIT:       3452  MISS:       1951
cpu0_L1D PREFETCH  REQUESTED:          0  ISSUED:          0  USEFUL:          0  USELESS:          0
cpu0_L1D AVERAGE MISS LATENCY: 117.279 cycles
cpu0_L2C TOTAL     ACCESS:    1590875  HIT:     626448  MISS:     964427
cpu0_L2C LOAD      ACCESS:    1125782  HIT:     198417  MISS:     927365
cpu0_L2C RFO       ACCESS:     114441  HIT:      79507  MISS:      34934
cpu0_L2C PREFETCH  ACCESS:        622  HIT:        200  MISS:        422
cpu0_L2C WRITEBACK ACCESS:     348079  HIT:     346858  MISS:       1221
cpu0_L2C TRANSLATION ACCESS:       1951  HIT:       1466  MISS:        485
cpu0_L2C PREFETCH  REQUESTED:       2186  ISSUED:       2177  USEFUL:        609  USELESS:        320
cpu0_L2C AVERAGE MISS LATENCY: 136.528 cycles
LLC TOTAL     ACCESS:    1197382  HIT:     636924  MISS:     560458
LLC LOAD      ACCESS:     926862  HIT:     394684  MISS:     532178
LLC RFO       ACCESS:      34934  HIT:       9570  MISS:      25364
LLC PREFETCH  ACCESS:       1127  HIT:         39  MISS:       1088
LLC WRITEBACK ACCESS:     233974  HIT:     232367  MISS:       1607
LLC TRANSLATION ACCESS:        485  HIT:        264  MISS:        221
LLC PREFETCH  REQUESTED:          0  ISSUED:          0  USEFUL:          0  USELESS:          0
LLC AVERAGE MISS LATENCY: 198.979 cycles

DRAM Statistics
 CHANNEL 0
 RQ ROW_BUFFER_HIT:      46723  ROW_BUFFER_MISS:     511878
 DBUS AVG_CONGESTED_CYCLE:    3.94471
 WQ ROW_BUFFER_HIT:      55518  ROW_BUFFER_MISS:     145350  FULL:          0


CPU 0 Branch Prediction Accuracy: 91.1986% MPKI: 12.9566 Average ROB Occupancy at Mispredict: 52.2163
Branch type MPKI
BRANCH_DIRECT_JUMP: 0
BRANCH_INDIRECT: 0
BRANCH_CONDITIONAL: 12.9566
BRANCH_DIRECT_CALL: 0
BRANCH_INDIRECT_CALL: 0
BRANCH_RETURN: 0

