
*** ChampSim Multicore Out-of-Order Simulator ***

Warmup Instructions: 25000000
Simulation Instructions: 25000000
Number of CPUs: 1
Off-chip DRAM Size: 4 GiB Channels: 1 Width: 64-bit Data Rate: 3200 MT/s

VirtualMemory physical capacity: 8588881920 num_ppages: 2096895
VirtualMemory page size: 4096 log2_page_size: 12

CPU 0 runs /home/priyansh/Downloads/CS683/Tracefiles/sssp-3.trace.gz
CPU 0 Bimodal branch predictor
Basic BTB sets: 1024 ways: 8 indirect buffer size: 4096 RAS size: 64
cpu0_L2C Stream plus stride based prefetcher
Heartbeat CPU 0 instructions: 10000002 cycles: 2980420 heartbeat IPC: 3.35523 cumulative IPC: 3.35523 (Simulation time: 0 hr 0 min 16 sec) 
Heartbeat CPU 0 instructions: 20000001 cycles: 6362371 heartbeat IPC: 2.95687 cumulative IPC: 3.14348 (Simulation time: 0 hr 0 min 36 sec) 

Warmup complete CPU 0 instructions: 25000004 cycles: 8126952 (Simulation time: 0 hr 0 min 46 sec) 

Heartbeat CPU 0 instructions: 30000002 cycles: 25325360 heartbeat IPC: 0.527343 cumulative IPC: 0.290724 (Simulation time: 0 hr 1 min 1 sec) 
Heartbeat CPU 0 instructions: 40000001 cycles: 60226543 heartbeat IPC: 0.286523 cumulative IPC: 0.28791 (Simulation time: 0 hr 1 min 32 sec) 
Heartbeat CPU 0 instructions: 50000002 cycles: 94763492 heartbeat IPC: 0.289545 cumulative IPC: 0.288562 (Simulation time: 0 hr 2 min 5 sec) 
Finished CPU 0 instructions: 25000000 cycles: 86636558 cumulative IPC: 0.288562 (Simulation time: 0 hr 2 min 5 sec) 

ChampSim completed all CPUs

Region of Interest Statistics

CPU 0 cumulative IPC: 0.288562 instructions: 25000000 cycles: 86636558
cpu0_DTLB TOTAL     ACCESS:    6313306  HIT:    5875725  MISS:     437581
cpu0_DTLB LOAD      ACCESS:    5888473  HIT:    5608309  MISS:     280164
cpu0_DTLB RFO       ACCESS:     424833  HIT:     267416  MISS:     157417
cpu0_DTLB PREFETCH  ACCESS:          0  HIT:          0  MISS:          0
cpu0_DTLB WRITEBACK ACCESS:          0  HIT:          0  MISS:          0
cpu0_DTLB TRANSLATION ACCESS:          0  HIT:          0  MISS:          0
cpu0_DTLB PREFETCH  REQUESTED:          0  ISSUED:          0  USEFUL:          0  USELESS:          0
cpu0_DTLB AVERAGE MISS LATENCY: 11.3278 cycles
cpu0_ITLB TOTAL     ACCESS:    2383433  HIT:    2383433  MISS:          0
cpu0_ITLB LOAD      ACCESS:    2383433  HIT:    2383433  MISS:          0
cpu0_ITLB RFO       ACCESS:          0  HIT:          0  MISS:          0
cpu0_ITLB PREFETCH  ACCESS:          0  HIT:          0  MISS:          0
cpu0_ITLB WRITEBACK ACCESS:          0  HIT:          0  MISS:          0
cpu0_ITLB TRANSLATION ACCESS:          0  HIT:          0  MISS:          0
cpu0_ITLB PREFETCH  REQUESTED:          0  ISSUED:          0  USEFUL:          0  USELESS:          0
cpu0_ITLB AVERAGE MISS LATENCY: -nan cycles
cpu0_L1I TOTAL     ACCESS:      10710  HIT:      10710  MISS:          0
cpu0_L1I LOAD      ACCESS:      10710  HIT:      10710  MISS:          0
cpu0_L1I RFO       ACCESS:          0  HIT:          0  MISS:          0
cpu0_L1I PREFETCH  ACCESS:          0  HIT:          0  MISS:          0
cpu0_L1I WRITEBACK ACCESS:          0  HIT:          0  MISS:          0
cpu0_L1I TRANSLATION ACCESS:          0  HIT:          0  MISS:          0
cpu0_L1I PREFETCH  REQUESTED:          0  ISSUED:          0  USEFUL:          0  USELESS:          0
cpu0_L1I AVERAGE MISS LATENCY: -nan cycles
cpu0_STLB TOTAL     ACCESS:     437581  HIT:     432151  MISS:       5430
cpu0_STLB LOAD      ACCESS:     280164  HIT:     275479  MISS:       4685
cpu0_STLB RFO       ACCESS:     157417  HIT:     156672  MISS:        745
cpu0_STLB PREFETCH  ACCESS:          0  HIT:          0  MISS:          0
cpu0_STLB WRITEBACK ACCESS:          0  HIT:          0  MISS:          0
cpu0_STLB TRANSLATION ACCESS:          0  HIT:          0  MISS:          0
cpu0_STLB PREFETCH  REQUESTED:          0  ISSUED:          0  USEFUL:          0  USELESS:          0
cpu0_STLB AVERAGE MISS LATENCY: 180.442 cycles
cpu0_L1D TOTAL     ACCESS:    6193554  HIT:    4951371  MISS:    1242183
cpu0_L1D LOAD      ACCESS:    5558175  HIT:    4432388  MISS:    1125787
cpu0_L1D RFO       ACCESS:     629976  HIT:     515530  MISS:     114446
cpu0_L1D PREFETCH  ACCESS:          0  HIT:          0  MISS:          0
cpu0_L1D WRITEBACK ACCESS:          0  HIT:          0  MISS:          0
cpu0_L1D TRANSLATION ACCESS:       5403  HIT:       3453  MISS:       1950
cpu0_L1D PREFETCH  REQUESTED:          0  ISSUED:          0  USEFUL:          0  USELESS:          0
cpu0_L1D AVERAGE MISS LATENCY: 117.252 cycles
cpu0_L2C TOTAL     ACCESS:    1591078  HIT:     626523  MISS:     964555
cpu0_L2C LOAD      ACCESS:    1125781  HIT:     198440  MISS:     927341
cpu0_L2C RFO       ACCESS:     114440  HIT:      79507  MISS:      34933
cpu0_L2C PREFETCH  ACCESS:        830  HIT:        254  MISS:        576
cpu0_L2C WRITEBACK ACCESS:     348077  HIT:     346857  MISS:       1220
cpu0_L2C TRANSLATION ACCESS:       1950  HIT:       1465  MISS:        485
cpu0_L2C PREFETCH  REQUESTED:       2407  ISSUED:       2407  USEFUL:        738  USELESS:        429
cpu0_L2C AVERAGE MISS LATENCY: 136.498 cycles
LLC TOTAL     ACCESS:    1197579  HIT:     636946  MISS:     560633
LLC LOAD      ACCESS:     926754  HIT:     394688  MISS:     532066
LLC RFO       ACCESS:      34933  HIT:       9574  MISS:      25359
LLC PREFETCH  ACCESS:       1432  HIT:         54  MISS:       1378
LLC WRITEBACK ACCESS:     233975  HIT:     232366  MISS:       1609
LLC TRANSLATION ACCESS:        485  HIT:        264  MISS:        221
LLC PREFETCH  REQUESTED:          0  ISSUED:          0  USEFUL:          0  USELESS:          0
LLC AVERAGE MISS LATENCY: 199.24 cycles

DRAM Statistics
 CHANNEL 0
 RQ ROW_BUFFER_HIT:      46491  ROW_BUFFER_MISS:     512282
 DBUS AVG_CONGESTED_CYCLE:    3.94559
 WQ ROW_BUFFER_HIT:      54484  ROW_BUFFER_MISS:     146408  FULL:          0


CPU 0 Branch Prediction Accuracy: 91.1986% MPKI: 12.9566 Average ROB Occupancy at Mispredict: 52.215
Branch type MPKI
BRANCH_DIRECT_JUMP: 0
BRANCH_INDIRECT: 0
BRANCH_CONDITIONAL: 12.9566
BRANCH_DIRECT_CALL: 0
BRANCH_INDIRECT_CALL: 0
BRANCH_RETURN: 0

